
This summary file was generated by TurbSim (v1.06.00, 21-Sep-2012) on 16-Aug-2020 at 16:29:44.


Runtime Options:

   2318573  Random seed #1
    RANLUX  Type of random number generator
         F  Output binary HH turbulence parameters?
         F  Output formatted turbulence parameters?
         F  Output AeroDyn HH files?
         T  Output AeroDyn FF files?
         F  Output BLADED FF files?
         F  Output tower data?
         F  Output formatted FF files?
         T  Output coherent turbulence time step file?
         T  Clockwise rotation when looking downwind?
 0 -  NONE  IEC turbulence models scaled to exact specified standard deviation


Turbine/Model Specifications:

        13  Vertical grid-point matrix dimension
        13  Horizontal grid-point matrix dimension
     0.050  Time step [seconds]
   600.000  Analysis time [seconds]
    40.000  Usable output time [seconds]
    90.000  Hub height [m]
   130.000  Grid height [m]
   130.000  Grid width [m]
     0.000  Vertical flow angle [degrees]
     0.000  Horizontal flow angle [degrees]


Meteorological Boundary Conditions:

    SMOOTH  RISO Smooth Terrain spectral model
       N/A  IEC standard
       N/A  IEC turbulence characteristic
       N/A  IEC turbulence type
       N/A  IEC Extreme Turbulence Model (ETM) "c" parameter [m/s]
       IEC  Wind profile type
    90.000  Reference height [m]
    20.000  Reference wind speed [m/s]
       N/A  Jet height [m]
     0.143  Power law exponent
     0.010  Surface roughness length [m]


Non-IEC Meteorological Boundary Conditions:

    45.000  Site latitude [degrees]
     0.050  Gradient Richardson number
     0.848  Friction or shear velocity [m/s]
       N/A  Mixing layer depth [m]
    -0.718  Mean hub u'w' Reynolds stress
       N/A  Mean hub u'v' Reynolds stress
       N/A  Mean hub v'w' Reynolds stress
(   20.000,  0.00    )  u-component coherence parameters
(   15.000,  0.00    )  v-component coherence parameters
(   15.000,  0.00    )  w-component coherence parameters
     0.000  Coherence exponent


Coherent Turbulence Scaling Parameters:

C:\Users\arthu\Desktop\turbsim\Test\EventData
            Name of the path containing the coherent turbulence data files
       les  Type of coherent turbulence data files
         T  Randomize the disturbance scale and location?
     1.000  Disturbance scale (ratio of wave height to rotor diameter)
     0.500  Fractional location of tower centerline from right
     0.500  Fractional location of hub height from the bottom of the dataset
    30.000  Minimum start time for coherent structures [seconds]


You have requested that the following file(s) be generated:

   TurbSim.bts (AeroDyn/TurbSim full-field wind file)
   TurbSim.cts (AeroDyn coherent turbulence time step file)


Turbulence Simulation Scaling Parameter Summary:

   Turbulence model used                            =  RISO Smooth Terrain
   Gradient Richardson number                       =    0.050
   Monin-Obukhov (M-O) z/L parameter                =    0.067
   Monin-Obukhov (M-O) length scale                 = 1350.000 m
   Mean wind speed at hub height                    =   20.000 m/s

   Wind profile type                                =  Power law on rotor disk, logarithmic elsewhere
   Power law exponent                               =    0.143
   Mean shear across rotor disk                     =    0.038 (m/s)/m
   Assumed rotor diameter                           =  130.000 m
   Surface roughness length                         =    0.010 m

   Number of time steps in the FFT                  =    12000
   Number of time steps output                      =      930


Mean Flow Angles:

   Vertical   =   0.0 degrees
   Horizontal =   0.0 degrees

Mean Wind Speed Profile:

   Height    Wind Speed   Horizontal Angle  U-comp (X)   V-comp (Y)   W-comp (Z)
     (m)        (m/s)         (degrees)       (m/s)        (m/s)        (m/s)   
   ------    ----------   ----------------  ----------   ----------   ----------
    155.0       21.62            0.00         21.62         0.00         0.00
    144.2       21.39            0.00         21.39         0.00         0.00
    133.3       21.16            0.00         21.16         0.00         0.00
    122.5       20.90            0.00         20.90         0.00         0.00
    111.7       20.63            0.00         20.63         0.00         0.00
    100.8       20.33            0.00         20.33         0.00         0.00
     90.0       20.00            0.00         20.00         0.00         0.00
     79.2       19.64            0.00         19.64         0.00         0.00
     68.3       19.23            0.00         19.23         0.00         0.00
     57.5       18.76            0.00         18.76         0.00         0.00
     46.7       18.21            0.00         18.21         0.00         0.00
     35.8       17.53            0.00         17.53         0.00         0.00
     25.0       16.65            0.00         16.65         0.00         0.00


Harvested Random Seeds after Generation of the Random Numbers:

     28265250 K1
            0 K2


Scaling statistics from the hub grid point:

   Cross-Component  Scaling Factor
   ---------------  --------------
   u'w'               -0.11189E+00
   u'v'                0.00000E+00
   v'w'                0.00000E+00


Hub-Height Simulated Turbulence Statistical Summary:

   Type of Wind        Min (m/s)   Mean (m/s)    Max (m/s)  Sigma (m/s)       TI (%)
   ----------------    ---------   ----------    ---------  -----------       ------
   Longitudinal (u)        13.42        20.00        27.47        2.200       10.999
   Lateral (v)             -6.06         0.00         4.73        1.643        8.214
   Vertical (w)            -5.72         0.00         5.35        1.432        7.162
   U component             13.42        20.00        27.47        2.200       10.999
   V component             -6.06         0.00         4.73        1.643        8.214
   W component             -5.72         0.00         5.35        1.432        7.162
   Horizontal (U&V)        13.42        20.07        27.50        2.197       10.948
   Total                   13.78        20.12        27.68        2.195       10.909

                       Min Reynolds     Mean Reynolds    Max Reynolds    Correlation
   Product             Stress (m/s)^2   Stress (m/s)^2   Stress (m/s)^2  Coefficient
   ----------------    --------------   --------------   --------------  -----------
   u'w'                    -25.782            -0.718            13.266        -0.228
   u'v'                    -23.091            -0.401            16.472        -0.111
   v'w'                    -16.726             0.168            11.917         0.071


   Friction Velocity (Ustar)  =      0.848 m/s
   Maximum Instantaneous TKE  =     34.348 (m/s)^2
   Maximum Instantaneous CTKE =     14.114 (m/s)^2


Grid Point Variance Summary:

   Y-coord  -65.00  -54.17  -43.33  -32.50  -21.67  -10.83    0.00   10.83   21.67   32.50   43.33   54.17   65.00

   Height   Standard deviation at grid points for the u component:
   155.00    1.991   1.948   1.932   1.877   1.964   2.004   2.226   2.103   2.135   2.173   2.242   2.135   2.267
   144.17    1.982   2.070   1.976   1.990   1.966   2.052   2.033   2.047   2.189   2.070   2.083   2.108   2.184
   133.33    2.115   1.963   2.083   1.843   2.136   2.070   2.171   2.085   2.191   2.155   2.059   2.153   2.130
   122.50    2.199   2.214   2.209   2.109   2.084   2.012   2.126   2.136   2.350   2.281   2.229   2.197   2.197
   111.67    2.265   2.203   2.284   2.134   2.009   1.966   2.053   2.199   2.216   2.193   2.253   2.295   2.268
   100.83    2.310   2.310   2.294   2.274   2.127   2.096   1.962   2.265   2.316   2.180   2.245   2.374   2.245
    90.00    2.276   2.373   2.374   2.324   2.232   2.199   2.200   2.281   2.241   2.321   2.069   2.232   2.492
    79.17    2.242   2.307   2.331   2.322   2.355   2.375   2.436   2.453   2.457   2.420   2.304   2.192   2.324
    68.33    2.262   2.196   2.188   2.330   2.162   2.335   2.394   2.344   2.379   2.451   2.321   2.287   2.172
    57.50    2.257   2.193   2.278   2.150   2.150   2.171   2.077   2.285   2.369   2.324   2.257   2.194   2.130
    46.67    2.186   2.095   2.098   2.123   2.142   2.198   1.978   2.049   2.233   2.177   2.165   2.130   2.125
    35.83    2.113   2.119   2.147   2.202   2.180   2.175   2.037   2.104   2.109   2.227   2.080   2.113   2.273
    25.00    2.190   2.099   2.294   2.187   2.206   2.154   2.217   2.158   2.121   2.254   2.299   2.278   2.215

   Height   Standard deviation at grid points for the v component:
   155.00    1.590   1.640   1.676   1.706   1.683   1.641   1.652   1.632   1.742   1.831   1.847   1.770   1.746
   144.17    1.563   1.567   1.636   1.669   1.709   1.648   1.669   1.606   1.655   1.743   1.735   1.809   1.670
   133.33    1.617   1.660   1.644   1.660   1.760   1.665   1.746   1.645   1.662   1.686   1.704   1.755   1.791
   122.50    1.643   1.698   1.623   1.695   1.765   1.678   1.652   1.665   1.654   1.703   1.728   1.727   1.742
   111.67    1.701   1.677   1.690   1.658   1.685   1.654   1.699   1.650   1.609   1.629   1.598   1.649   1.579
   100.83    1.736   1.689   1.702   1.752   1.727   1.639   1.633   1.590   1.606   1.571   1.602   1.620   1.591
    90.00    1.696   1.733   1.796   1.793   1.833   1.738   1.643   1.601   1.585   1.589   1.594   1.554   1.597
    79.17    1.744   1.747   1.792   1.784   1.712   1.718   1.591   1.637   1.662   1.576   1.563   1.598   1.602
    68.33    1.690   1.731   1.681   1.720   1.776   1.680   1.627   1.614   1.599   1.596   1.638   1.621   1.542
    57.50    1.695   1.637   1.670   1.681   1.650   1.634   1.624   1.618   1.628   1.608   1.625   1.638   1.617
    46.67    1.622   1.673   1.660   1.666   1.699   1.695   1.735   1.702   1.708   1.650   1.651   1.671   1.617
    35.83    1.688   1.710   1.682   1.661   1.680   1.674   1.734   1.760   1.728   1.655   1.650   1.658   1.670
    25.00    1.662   1.679   1.662   1.656   1.687   1.674   1.712   1.711   1.646   1.650   1.628   1.634   1.654

   Height   Standard deviation at grid points for the w component:
   155.00    1.379   1.365   1.335   1.329   1.248   1.341   1.296   1.305   1.333   1.345   1.321   1.295   1.266
   144.17    1.372   1.314   1.338   1.292   1.268   1.283   1.296   1.351   1.347   1.305   1.344   1.337   1.279
   133.33    1.357   1.368   1.332   1.254   1.255   1.310   1.335   1.343   1.291   1.336   1.325   1.352   1.356
   122.50    1.298   1.356   1.329   1.297   1.327   1.330   1.341   1.394   1.324   1.347   1.353   1.361   1.314
   111.67    1.294   1.372   1.405   1.310   1.314   1.350   1.375   1.339   1.365   1.308   1.303   1.328   1.298
   100.83    1.332   1.381   1.388   1.387   1.387   1.403   1.347   1.387   1.400   1.332   1.305   1.341   1.341
    90.00    1.350   1.360   1.394   1.404   1.418   1.422   1.432   1.407   1.345   1.350   1.293   1.326   1.356
    79.17    1.380   1.369   1.397   1.399   1.371   1.406   1.377   1.377   1.371   1.352   1.381   1.339   1.364
    68.33    1.343   1.356   1.356   1.341   1.318   1.294   1.336   1.343   1.363   1.372   1.356   1.351   1.363
    57.50    1.325   1.323   1.338   1.273   1.315   1.282   1.298   1.351   1.332   1.315   1.297   1.312   1.342
    46.67    1.318   1.284   1.276   1.314   1.315   1.278   1.291   1.298   1.314   1.333   1.303   1.250   1.318
    35.83    1.290   1.294   1.271   1.304   1.312   1.261   1.245   1.292   1.275   1.330   1.313   1.279   1.265
    25.00    1.294   1.263   1.287   1.303   1.268   1.277   1.271   1.291   1.292   1.307   1.312   1.313   1.274

   Mean standard deviation across all grid points:
      u component:    2.187 m/s
      v component:    1.671 m/s
      w component:    1.329 m/s


Average expected time between events =   96.485 seconds
Number of coherent events            =        1
Predicted length of coherent events  =    1.023 seconds
Length of coherent events            =   10.834 seconds
Maximum predicted event CTKE         =    8.489 (m/s)^2


U-component (X) statistics from the hub grid point:

   Mean =  20.0000 m/s
   TI   =  10.9994 %

Nyquist frequency of turbulent wind field =        10.000 Hz
Nyquist frequency of coherent turbulent events =    3.785 Hz


Processing complete.  5.4062 CPU seconds used.
