
This summary file was generated by TurbSim (v1.06.00, 21-Sep-2012) on 11-Sep-2020 at 10:31:39.


Runtime Options:

  65432154  Random seed #1
    RANLUX  Type of random number generator
         F  Output binary HH turbulence parameters?
         F  Output formatted turbulence parameters?
         F  Output AeroDyn HH files?
         T  Output AeroDyn FF files?
         F  Output BLADED FF files?
         T  Output tower data?
         F  Output formatted FF files?
         F  Output coherent turbulence time step file?
         T  Clockwise rotation when looking downwind?
 0 -  NONE  IEC turbulence models scaled to exact specified standard deviation


Turbine/Model Specifications:

        33  Vertical grid-point matrix dimension
        33  Horizontal grid-point matrix dimension
     0.050  Time step [seconds]
  3600.000  Analysis time [seconds]
    70.000  Usable output time [seconds]
    87.600  Hub height [m]
   130.000  Grid height [m]
   130.000  Grid width [m]
     0.000  Vertical flow angle [degrees]
     0.000  Horizontal flow angle [degrees]


Meteorological Boundary Conditions:

    SMOOTH  RISO Smooth Terrain spectral model
       N/A  IEC standard
       N/A  IEC turbulence characteristic
       N/A  IEC turbulence type
       N/A  IEC Extreme Turbulence Model (ETM) "c" parameter [m/s]
       IEC  Wind profile type
    87.600  Reference height [m]
    24.000  Reference wind speed [m/s]
       N/A  Jet height [m]
     0.143  Power law exponent
     0.010  Surface roughness length [m]


Non-IEC Meteorological Boundary Conditions:

    45.000  Site latitude [degrees]
     0.050  Gradient Richardson number
     1.020  Friction or shear velocity [m/s]
       N/A  Mixing layer depth [m]
    -1.041  Mean hub u'w' Reynolds stress
       N/A  Mean hub u'v' Reynolds stress
       N/A  Mean hub v'w' Reynolds stress
(   24.000,  0.00    )  u-component coherence parameters
(   18.000,  0.00    )  v-component coherence parameters
(   18.000,  0.00    )  w-component coherence parameters
     0.000  Coherence exponent


You have requested that the following file(s) be generated:

   unsteady_tmp_24.bts (AeroDyn/TurbSim full-field wind file)


Turbulence Simulation Scaling Parameter Summary:

   Turbulence model used                            =  RISO Smooth Terrain
   Gradient Richardson number                       =    0.050
   Monin-Obukhov (M-O) z/L parameter                =    0.067
   Monin-Obukhov (M-O) length scale                 = 1314.000 m
   Mean wind speed at hub height                    =   24.000 m/s

   Wind profile type                                =  Power law on rotor disk, logarithmic elsewhere
   Power law exponent                               =    0.143
   Mean shear across rotor disk                     =    0.044 (m/s)/m
   Assumed rotor diameter                           =  130.000 m
   Surface roughness length                         =    0.010 m

   Number of time steps in the FFT                  =    72000
   Number of time steps output                      =     1509


Mean Flow Angles:

   Vertical   =   0.0 degrees
   Horizontal =   0.0 degrees

Mean Wind Speed Profile:

   Height    Wind Speed   Horizontal Angle  U-comp (X)   V-comp (Y)   W-comp (Z)
     (m)        (m/s)         (degrees)       (m/s)        (m/s)        (m/s)   
   ------    ----------   ----------------  ----------   ----------   ----------
    152.6       25.47            0.00         25.47         0.00         0.00
    148.5       25.88            0.00         25.88         0.00         0.00
    144.5       25.78            0.00         25.78         0.00         0.00
    140.4       25.68            0.00         25.68         0.00         0.00
    136.4       25.57            0.00         25.57         0.00         0.00
    132.3       25.46            0.00         25.46         0.00         0.00
    128.2       25.34            0.00         25.34         0.00         0.00
    124.2       25.23            0.00         25.23         0.00         0.00
    120.1       25.11            0.00         25.11         0.00         0.00
    116.0       24.98            0.00         24.98         0.00         0.00
    112.0       24.86            0.00         24.86         0.00         0.00
    107.9       24.73            0.00         24.73         0.00         0.00
    103.9       24.59            0.00         24.59         0.00         0.00
     99.8       24.45            0.00         24.45         0.00         0.00
     95.7       24.31            0.00         24.31         0.00         0.00
     91.7       24.16            0.00         24.16         0.00         0.00
     87.6       24.00            0.00         24.00         0.00         0.00
     83.5       23.84            0.00         23.84         0.00         0.00
     79.5       23.67            0.00         23.67         0.00         0.00
     75.4       23.49            0.00         23.49         0.00         0.00
     71.4       23.31            0.00         23.31         0.00         0.00
     67.3       23.11            0.00         23.11         0.00         0.00
     63.2       22.91            0.00         22.91         0.00         0.00
     59.2       22.69            0.00         22.69         0.00         0.00
     55.1       22.46            0.00         22.46         0.00         0.00
     51.0       22.22            0.00         22.22         0.00         0.00
     47.0       21.95            0.00         21.95         0.00         0.00
     42.9       21.67            0.00         21.67         0.00         0.00
     38.9       21.37            0.00         21.37         0.00         0.00
     34.8       21.03            0.00         21.03         0.00         0.00
     30.7       20.66            0.00         20.66         0.00         0.00
     26.7       20.25            0.00         20.25         0.00         0.00
     22.6       19.77            0.00         19.77         0.00         0.00
     18.5       19.89            0.00         19.89         0.00         0.00
     14.5       19.24            0.00         19.24         0.00         0.00
     10.4       18.37            0.00         18.37         0.00         0.00
      6.4       17.06            0.00         17.06         0.00         0.00
      2.3       14.36            0.00         14.36         0.00         0.00


Harvested Random Seeds after Generation of the Random Numbers:

     97829000 K1
            1 K2
