
This summary file was generated by TurbSim (v1.06.00, 21-Sep-2012) on 24-Sep-2020 at 14:34:36.


Runtime Options:

  65432154  Random seed #1
    RANLUX  Type of random number generator
         F  Output binary HH turbulence parameters?
         F  Output formatted turbulence parameters?
         F  Output AeroDyn HH files?
         T  Output AeroDyn FF files?
         F  Output BLADED FF files?
         T  Output tower data?
         F  Output formatted FF files?
         F  Output coherent turbulence time step file?
         T  Clockwise rotation when looking downwind?
 0 -  NONE  IEC turbulence models scaled to exact specified standard deviation


Turbine/Model Specifications:

        33  Vertical grid-point matrix dimension
        33  Horizontal grid-point matrix dimension
     0.050  Time step [seconds]
  3610.000  Analysis time [seconds]
  3610.000  Usable output time [seconds]
    87.600  Hub height [m]
   130.000  Grid height [m]
   130.000  Grid width [m]
     0.000  Vertical flow angle [degrees]
     0.000  Horizontal flow angle [degrees]


Meteorological Boundary Conditions:

    SMOOTH  RISO Smooth Terrain spectral model
       N/A  IEC standard
       N/A  IEC turbulence characteristic
       N/A  IEC turbulence type
       N/A  IEC Extreme Turbulence Model (ETM) "c" parameter [m/s]
       IEC  Wind profile type
    87.600  Reference height [m]
    18.000  Reference wind speed [m/s]
       N/A  Jet height [m]
     0.143  Power law exponent
     0.010  Surface roughness length [m]


Non-IEC Meteorological Boundary Conditions:

    45.000  Site latitude [degrees]
     0.050  Gradient Richardson number
     0.765  Friction or shear velocity [m/s]
       N/A  Mixing layer depth [m]
    -0.585  Mean hub u'w' Reynolds stress
       N/A  Mean hub u'v' Reynolds stress
       N/A  Mean hub v'w' Reynolds stress
(   18.000,  0.00    )  u-component coherence parameters
(   13.500,  0.00    )  v-component coherence parameters
(   13.500,  0.00    )  w-component coherence parameters
     0.000  Coherence exponent


You have requested that the following file(s) be generated:

   unsteady_tmp_18.bts (AeroDyn/TurbSim full-field wind file)


Turbulence Simulation Scaling Parameter Summary:

   Turbulence model used                            =  RISO Smooth Terrain
   Gradient Richardson number                       =    0.050
   Monin-Obukhov (M-O) z/L parameter                =    0.067
   Monin-Obukhov (M-O) length scale                 = 1314.000 m
   Mean wind speed at hub height                    =   18.000 m/s

   Wind profile type                                =  Power law on rotor disk, logarithmic elsewhere
   Power law exponent                               =    0.143
   Mean shear across rotor disk                     =    0.033 (m/s)/m
   Assumed rotor diameter                           =  130.000 m
   Surface roughness length                         =    0.010 m

   Number of time steps in the FFT                  =    72352
   Number of time steps output                      =    72345


Mean Flow Angles:

   Vertical   =   0.0 degrees
   Horizontal =   0.0 degrees

Mean Wind Speed Profile:

   Height    Wind Speed   Horizontal Angle  U-comp (X)   V-comp (Y)   W-comp (Z)
     (m)        (m/s)         (degrees)       (m/s)        (m/s)        (m/s)   
   ------    ----------   ----------------  ----------   ----------   ----------
    152.6       19.10            0.00         19.10         0.00         0.00
    148.5       19.41            0.00         19.41         0.00         0.00
    144.5       19.34            0.00         19.34         0.00         0.00
    140.4       19.26            0.00         19.26         0.00         0.00
    136.4       19.18            0.00         19.18         0.00         0.00
    132.3       19.09            0.00         19.09         0.00         0.00
    128.2       19.01            0.00         19.01         0.00         0.00
    124.2       18.92            0.00         18.92         0.00         0.00
    120.1       18.83            0.00         18.83         0.00         0.00
    116.0       18.74            0.00         18.74         0.00         0.00
    112.0       18.64            0.00         18.64         0.00         0.00
    107.9       18.54            0.00         18.54         0.00         0.00
    103.9       18.44            0.00         18.44         0.00         0.00
     99.8       18.34            0.00         18.34         0.00         0.00
     95.7       18.23            0.00         18.23         0.00         0.00
     91.7       18.12            0.00         18.12         0.00         0.00
     87.6       18.00            0.00         18.00         0.00         0.00
     83.5       17.88            0.00         17.88         0.00         0.00
     79.5       17.75            0.00         17.75         0.00         0.00
     75.4       17.62            0.00         17.62         0.00         0.00
     71.4       17.48            0.00         17.48         0.00         0.00
     67.3       17.33            0.00         17.33         0.00         0.00
     63.2       17.18            0.00         17.18         0.00         0.00
     59.2       17.02            0.00         17.02         0.00         0.00
     55.1       16.85            0.00         16.85         0.00         0.00
     51.0       16.66            0.00         16.66         0.00         0.00
     47.0       16.47            0.00         16.47         0.00         0.00
     42.9       16.25            0.00         16.25         0.00         0.00
     38.9       16.02            0.00         16.02         0.00         0.00
     34.8       15.77            0.00         15.77         0.00         0.00
     30.7       15.50            0.00         15.50         0.00         0.00
     26.7       15.18            0.00         15.18         0.00         0.00
     22.6       14.83            0.00         14.83         0.00         0.00
     18.5       14.92            0.00         14.92         0.00         0.00
     14.5       14.43            0.00         14.43         0.00         0.00
     10.4       13.78            0.00         13.78         0.00         0.00
      6.4       12.80            0.00         12.80         0.00         0.00
      2.3       10.77            0.00         10.77         0.00         0.00


Harvested Random Seeds after Generation of the Random Numbers:

    103196164 K1
            1 K2


Scaling statistics from the hub grid point:

   Cross-Component  Scaling Factor
   ---------------  --------------
   u'w'               -0.16047E+00
   u'v'                0.00000E+00
   v'w'                0.00000E+00


Hub-Height Simulated Turbulence Statistical Summary:

   Type of Wind        Min (m/s)   Mean (m/s)    Max (m/s)  Sigma (m/s)       TI (%)
   ----------------    ---------   ----------    ---------  -----------       ------
   Longitudinal (u)        10.96        18.00        25.59        2.031       11.281
   Lateral (v)             -5.98         0.00         6.78        1.507        8.374
   Vertical (w)            -4.24         0.00         4.66        1.194        6.635
   U component             10.96        18.00        25.59        2.031       11.281
   V component             -5.98         0.00         6.78        1.507        8.374
   W component             -4.24         0.00         4.66        1.194        6.635
   Horizontal (U&V)        11.05        18.06        25.59        2.023       11.199
   Total                   11.30        18.10        25.67        2.019       11.152

                       Min Reynolds     Mean Reynolds    Max Reynolds    Correlation
   Product             Stress (m/s)^2   Stress (m/s)^2   Stress (m/s)^2  Coefficient
   ----------------    --------------   --------------   --------------  -----------
   u'w'                    -20.349            -0.585            12.104        -0.241
   u'v'                    -23.485             0.067            26.759         0.022
   v'w'                    -13.592            -0.029            16.562        -0.016


   Friction Velocity (Ustar)  =      0.765 m/s
   Maximum Instantaneous TKE  =     30.746 (m/s)^2
   Maximum Instantaneous CTKE =     15.453 (m/s)^2


Grid Point Variance Summary:

   Y-coord  -65.00  -60.94  -56.88  -52.81  -48.75  -44.69  -40.62  -36.56  -32.50  -28.44  -24.38  -20.31  -16.25  -12.19   -8.12   -4.06    0.00    4.06    8.12   12.19   16.25   20.31   24.38   28.44   32.50   36.56   40.62   44.69   48.75   52.81   56.88   60.94   65.00

   Height   Standard deviation at grid points for the u component:
   152.60    1.862   1.868   1.888   1.893   1.865   1.902   1.880   1.884   1.853   1.833   1.867   1.884   1.880   1.899   1.919   1.927   1.898   1.903   1.949   1.953   1.914   1.913   1.881   1.886   1.896   1.862   1.827   1.788   1.808   1.821   1.838   1.807   1.847
   148.54    1.842   1.876   1.911   1.935   1.922   1.930   1.893   1.908   1.883   1.871   1.904   1.904   1.937   1.900   1.917   1.924   1.904   1.940   1.952   1.928   1.909   1.896   1.882   1.885   1.902   1.870   1.859   1.806   1.834   1.848   1.846   1.849   1.829
   144.48    1.886   1.908   1.924   1.971   1.954   1.952   1.937   1.928   1.896   1.886   1.911   1.949   1.955   1.939   1.941   1.897   1.936   1.933   1.944   1.952   1.918   1.934   1.919   1.896   1.876   1.858   1.845   1.817   1.866   1.843   1.850   1.843   1.870
   140.41    1.922   1.959   1.961   1.968   1.964   1.983   1.966   1.955   1.920   1.938   1.936   1.973   1.977   1.990   1.999   1.960   1.949   1.942   1.966   1.937   1.932   1.941   1.939   1.941   1.855   1.833   1.858   1.839   1.848   1.849   1.872   1.844   1.856
   136.35    1.964   1.957   1.982   1.977   2.003   1.997   2.019   1.967   1.946   1.951   1.999   2.004   1.959   2.019   1.990   1.990   1.984   2.009   2.002   1.938   1.935   1.951   1.922   1.887   1.899   1.847   1.869   1.867   1.870   1.857   1.869   1.852   1.850
   132.29    1.996   1.963   1.983   1.986   2.012   2.009   1.989   1.949   1.930   1.955   2.009   2.052   2.033   1.993   1.995   1.975   2.019   2.044   2.038   2.018   1.953   1.950   1.931   1.914   1.897   1.910   1.862   1.869   1.895   1.899   1.887   1.906   1.906
   128.23    1.983   1.979   1.971   1.995   1.992   1.962   1.974   1.972   1.946   1.989   2.014   2.055   2.046   2.030   2.030   2.003   2.026   2.030   2.033   1.999   2.008   1.970   1.925   1.916   1.902   1.900   1.920   1.902   1.882   1.904   1.878   1.908   1.938
   124.16    1.995   1.958   1.975   1.997   1.964   1.986   1.979   1.978   1.966   2.002   1.976   2.048   2.041   2.037   2.015   1.995   2.005   2.021   2.020   2.050   1.996   1.967   1.914   1.897   1.929   1.947   1.952   1.942   1.938   1.911   1.924   1.951   1.945
   120.10    1.991   1.971   1.990   1.999   1.971   1.978   2.000   2.023   2.020   2.017   2.006   2.014   2.076   2.036   2.047   2.005   2.032   2.049   2.017   1.975   1.967   1.924   1.937   1.958   1.974   1.986   1.967   1.973   1.925   1.927   1.947   1.980   1.938
   116.04    1.985   1.956   1.949   2.023   1.998   2.000   1.991   2.008   2.050   2.062   2.050   2.060   2.038   2.045   2.041   2.016   2.023   2.039   2.008   1.986   1.938   1.938   1.956   1.975   2.011   1.982   1.976   1.967   1.945   1.923   1.962   1.952   1.947
   111.98    1.977   1.947   1.960   2.012   2.041   2.043   2.033   2.001   2.071   2.031   2.023   2.056   2.074   2.024   2.037   2.038   2.047   2.043   1.997   1.968   1.970   1.945   1.978   1.982   1.984   1.996   1.984   1.955   1.939   1.937   1.937   1.931   1.959
   107.91    1.993   1.956   1.980   1.975   1.996   2.006   2.005   2.021   2.051   2.016   2.032   2.035   2.054   2.051   2.044   2.053   2.055   2.026   2.000   2.016   1.977   1.991   1.990   1.977   1.967   1.982   1.957   1.940   1.936   1.942   1.927   1.954   1.964
   103.85    1.970   1.969   1.947   1.959   1.962   2.009   1.998   2.013   2.015   2.037   2.035   2.008   2.017   2.049   2.059   2.046   2.038   2.014   2.007   2.015   2.035   2.042   2.044   1.980   1.977   1.967   1.963   1.907   1.915   1.932   1.927   1.920   1.931
    99.79    1.956   1.948   1.954   1.951   1.952   1.992   1.979   2.019   2.025   2.001   1.980   1.998   2.022   2.040   2.058   2.028   1.978   1.998   2.029   2.028   2.023   2.026   2.004   1.962   1.961   1.956   1.931   1.908   1.893   1.938   1.899   1.898   1.937
    95.73    1.998   2.009   1.931   1.918   1.968   1.985   1.985   1.984   2.020   1.988   1.979   1.997   2.000   2.023   2.070   2.026   1.994   1.981   2.028   2.045   2.021   1.995   1.971   1.956   1.940   1.926   1.890   1.907   1.906   1.906   1.934   1.931   1.984
    91.66    2.005   2.025   1.978   1.959   1.974   1.973   1.998   2.000   1.987   1.993   1.984   2.004   2.002   1.979   2.033   2.021   2.031   1.999   2.016   2.048   2.045   1.991   1.961   1.942   1.949   1.908   1.896   1.900   1.878   1.919   1.929   1.936   1.975
    87.60    2.013   2.027   2.010   1.999   1.992   1.986   2.010   2.000   2.005   2.011   2.017   1.978   2.005   2.003   1.991   2.024   2.031   2.048   2.025   2.050   2.030   2.025   1.997   1.976   1.962   1.937   1.911   1.930   1.914   1.919   1.929   1.994   1.985
    83.54    2.049   2.045   2.053   2.041   1.998   2.009   2.001   2.012   2.020   2.029   2.015   1.994   2.001   1.989   2.023   2.037   2.032   2.039   2.060   2.086   2.068   2.051   2.002   1.960   1.951   1.930   1.915   1.943   1.913   1.896   1.930   1.963   1.947
    79.48    2.034   2.012   2.015   2.057   2.044   2.031   2.065   2.051   2.038   2.010   2.027   2.002   1.993   1.965   2.008   2.025   2.012   1.996   2.027   1.996   2.024   2.017   1.960   1.941   1.928   1.935   1.924   1.933   1.921   1.892   1.920   1.976   1.979
    75.41    2.019   2.005   2.044   2.067   2.028   2.020   2.069   2.075   2.065   2.058   2.024   1.996   1.973   2.008   2.039   1.996   2.007   1.997   1.963   1.951   1.926   1.931   1.938   1.919   1.884   1.913   1.926   1.948   1.902   1.891   1.923   1.969   2.008
    71.35    2.002   1.992   2.017   2.037   2.017   2.038   2.069   2.068   2.065   2.072   2.058   2.045   1.981   2.017   2.020   2.012   1.981   1.967   1.946   1.918   1.905   1.878   1.886   1.891   1.896   1.927   1.891   1.902   1.900   1.940   1.969   1.972   1.994
    67.29    2.011   2.029   2.013   2.012   1.997   2.029   2.084   2.069   2.026   2.049   2.062   2.037   2.033   2.007   2.032   2.030   2.036   1.983   1.932   1.916   1.942   1.901   1.887   1.920   1.907   1.904   1.934   1.927   1.922   1.935   1.953   1.967   1.966
    63.23    2.001   2.027   2.017   2.018   2.000   2.007   2.053   2.042   2.031   2.034   1.990   2.025   2.039   2.041   2.021   2.036   1.984   1.943   1.920   1.922   1.941   1.944   1.922   1.907   1.886   1.946   1.945   1.936   1.963   1.980   1.962   2.008   1.976
    59.16    1.956   1.968   2.020   2.024   1.965   1.961   1.981   1.983   1.993   1.987   1.989   1.995   2.025   2.019   1.979   1.989   1.980   1.964   1.953   1.952   1.902   1.898   1.910   1.921   1.944   1.960   1.974   1.971   1.993   2.024   1.996   2.000   2.016
    55.10    1.979   1.968   1.999   1.970   1.982   1.970   1.959   1.950   1.984   1.979   2.017   2.030   2.019   2.007   2.012   2.013   1.984   1.958   1.938   1.930   1.918   1.923   1.948   1.948   1.934   1.967   1.961   1.986   1.984   1.993   2.009   1.971   1.978
    51.04    1.967   1.975   1.974   1.959   1.962   1.973   1.966   1.991   2.020   1.994   1.984   2.017   1.960   1.984   2.002   1.989   1.986   1.978   1.939   1.943   1.943   1.916   1.929   1.922   1.931   1.944   1.964   1.991   1.994   1.974   2.000   2.000   1.973
    46.98    1.987   1.982   1.970   1.997   1.971   1.978   1.989   1.992   2.010   2.001   2.008   2.016   1.991   1.965   1.964   1.956   1.956   1.970   1.969   1.982   1.938   1.925   1.951   1.954   1.927   1.917   1.942   1.947   1.981   1.993   2.012   2.011   1.970
    42.91    2.007   2.005   1.994   1.982   1.938   1.942   1.992   2.047   2.042   2.010   2.004   1.972   1.968   1.947   1.961   1.956   1.939   1.956   1.989   1.961   1.967   1.961   1.941   1.964   1.937   1.946   1.968   1.955   1.970   1.960   1.998   1.995   1.982
    38.85    1.982   1.973   1.960   1.971   1.952   1.957   2.022   2.032   2.020   2.007   1.984   1.989   1.966   1.967   1.931   1.907   1.934   1.935   1.949   1.972   1.996   1.957   1.966   1.945   1.939   1.969   1.945   1.966   1.952   1.998   1.968   1.978   1.975
    34.79    1.991   1.957   1.950   1.949   1.976   1.982   2.009   2.030   1.979   1.985   2.025   1.990   2.016   1.993   1.953   1.927   1.922   1.956   1.961   1.962   1.994   1.962   1.940   1.959   1.940   1.977   1.988   1.991   1.970   1.943   1.951   1.974   1.947
    30.73    1.976   1.964   1.982   1.986   1.978   2.022   1.997   1.990   1.995   1.999   2.016   2.004   1.977   1.957   1.964   1.943   1.935   1.943   1.947   1.929   1.950   1.988   1.981   1.988   1.981   2.000   2.003   1.994   2.012   1.977   1.983   1.993   1.973
    26.66    1.978   1.995   1.988   1.959   1.969   1.979   1.988   1.972   2.004   2.053   2.075   2.006   2.002   2.011   1.978   1.946   1.941   1.969   1.932   1.913   1.941   1.946   1.977   1.964   1.969   1.992   1.926   1.959   1.984   1.971   1.973   1.977   1.982
    22.60    1.989   1.985   1.996   1.979   1.991   1.967   1.974   1.999   2.048   2.036   2.026   2.052   1.992   1.951   1.973   1.943   1.948   1.930   1.939   1.936   1.953   1.936   1.953   1.954   1.980   2.007   1.942   1.970   1.958   1.936   1.953   1.979   1.965

   Height   Standard deviation at grid points for the v component:
   152.60    1.514   1.517   1.510   1.520   1.533   1.550   1.565   1.573   1.567   1.548   1.542   1.522   1.518   1.515   1.492   1.479   1.485   1.482   1.496   1.505   1.483   1.483   1.472   1.442   1.451   1.463   1.493   1.503   1.490   1.527   1.535   1.530   1.544
   148.54    1.517   1.528   1.528   1.527   1.548   1.560   1.561   1.583   1.556   1.561   1.546   1.536   1.544   1.533   1.524   1.494   1.483   1.492   1.502   1.501   1.496   1.510   1.493   1.450   1.457   1.448   1.485   1.481   1.492   1.507   1.514   1.521   1.541
   144.48    1.543   1.554   1.557   1.553   1.567   1.563   1.551   1.572   1.547   1.543   1.547   1.533   1.540   1.540   1.530   1.502   1.482   1.485   1.511   1.516   1.501   1.496   1.481   1.484   1.454   1.472   1.507   1.501   1.495   1.505   1.495   1.501   1.531
   140.41    1.548   1.556   1.549   1.568   1.585   1.597   1.600   1.571   1.559   1.554   1.562   1.541   1.532   1.518   1.520   1.497   1.481   1.518   1.502   1.494   1.472   1.489   1.472   1.490   1.495   1.500   1.519   1.520   1.497   1.495   1.487   1.489   1.502
   136.35    1.530   1.538   1.542   1.556   1.582   1.594   1.586   1.568   1.567   1.564   1.558   1.546   1.520   1.530   1.515   1.509   1.503   1.504   1.510   1.481   1.483   1.490   1.507   1.513   1.507   1.509   1.531   1.529   1.529   1.499   1.493   1.509   1.510
   132.29    1.540   1.537   1.548   1.539   1.547   1.591   1.597   1.573   1.564   1.568   1.553   1.528   1.520   1.518   1.513   1.512   1.517   1.503   1.492   1.510   1.497   1.504   1.507   1.517   1.546   1.531   1.517   1.517   1.504   1.504   1.497   1.513   1.519
   128.23    1.532   1.527   1.548   1.554   1.573   1.584   1.594   1.570   1.577   1.574   1.552   1.538   1.535   1.529   1.529   1.521   1.511   1.497   1.495   1.494   1.521   1.511   1.501   1.497   1.531   1.510   1.519   1.511   1.517   1.501   1.493   1.494   1.504
   124.16    1.530   1.513   1.535   1.540   1.561   1.576   1.572   1.585   1.585   1.578   1.564   1.524   1.538   1.539   1.512   1.512   1.524   1.516   1.508   1.510   1.546   1.535   1.508   1.501   1.506   1.511   1.511   1.492   1.496   1.480   1.505   1.478   1.491
   120.10    1.524   1.531   1.540   1.532   1.568   1.558   1.552   1.569   1.581   1.556   1.535   1.533   1.541   1.540   1.528   1.510   1.529   1.491   1.535   1.524   1.544   1.526   1.518   1.489   1.495   1.498   1.511   1.500   1.464   1.483   1.484   1.472   1.492
   116.04    1.548   1.552   1.537   1.540   1.561   1.565   1.551   1.549   1.560   1.562   1.545   1.557   1.529   1.526   1.525   1.518   1.543   1.541   1.536   1.543   1.536   1.524   1.521   1.523   1.515   1.516   1.511   1.506   1.479   1.479   1.469   1.479   1.488
   111.98    1.563   1.569   1.563   1.567   1.565   1.554   1.529   1.537   1.550   1.548   1.535   1.554   1.542   1.532   1.526   1.524   1.530   1.532   1.532   1.554   1.548   1.529   1.523   1.526   1.503   1.520   1.518   1.507   1.500   1.465   1.473   1.497   1.487
   107.91    1.534   1.559   1.564   1.546   1.533   1.532   1.535   1.529   1.554   1.567   1.551   1.519   1.537   1.520   1.523   1.523   1.547   1.538   1.535   1.526   1.512   1.509   1.489   1.497   1.499   1.505   1.505   1.510   1.504   1.515   1.495   1.498   1.498
   103.85    1.540   1.566   1.578   1.554   1.537   1.521   1.533   1.525   1.551   1.574   1.534   1.535   1.529   1.563   1.546   1.534   1.514   1.528   1.528   1.518   1.503   1.513   1.501   1.495   1.503   1.534   1.528   1.513   1.509   1.514   1.499   1.495   1.515
    99.79    1.579   1.576   1.549   1.560   1.533   1.533   1.527   1.537   1.546   1.548   1.543   1.530   1.535   1.561   1.557   1.534   1.518   1.510   1.517   1.518   1.509   1.506   1.504   1.513   1.532   1.536   1.525   1.526   1.522   1.527   1.509   1.523   1.523
    95.73    1.578   1.553   1.541   1.554   1.573   1.550   1.571   1.563   1.541   1.520   1.525   1.526   1.517   1.550   1.526   1.509   1.509   1.491   1.481   1.481   1.499   1.521   1.519   1.509   1.518   1.535   1.511   1.520   1.536   1.527   1.512   1.517   1.514
    91.66    1.567   1.553   1.565   1.579   1.578   1.566   1.546   1.568   1.546   1.534   1.542   1.537   1.535   1.530   1.520   1.501   1.498   1.505   1.489   1.489   1.464   1.470   1.481   1.495   1.505   1.527   1.522   1.511   1.523   1.537   1.525   1.509   1.504
    87.60    1.546   1.565   1.560   1.564   1.559   1.558   1.542   1.556   1.561   1.547   1.558   1.546   1.528   1.521   1.514   1.499   1.507   1.493   1.512   1.492   1.481   1.470   1.476   1.493   1.497   1.528   1.532   1.517   1.506   1.516   1.519   1.490   1.484
    83.54    1.543   1.540   1.556   1.574   1.572   1.554   1.542   1.545   1.571   1.550   1.554   1.542   1.541   1.522   1.527   1.526   1.510   1.517   1.513   1.501   1.492   1.479   1.474   1.509   1.510   1.503   1.503   1.496   1.490   1.498   1.509   1.498   1.495
    79.48    1.563   1.557   1.546   1.575   1.573   1.546   1.546   1.552   1.560   1.571   1.522   1.522   1.518   1.503   1.504   1.507   1.527   1.535   1.527   1.500   1.507   1.502   1.480   1.507   1.526   1.517   1.506   1.499   1.514   1.524   1.506   1.524   1.509
    75.41    1.543   1.561   1.555   1.547   1.566   1.537   1.537   1.535   1.546   1.556   1.537   1.502   1.522   1.520   1.504   1.505   1.497   1.513   1.509   1.492   1.528   1.510   1.503   1.516   1.523   1.513   1.499   1.514   1.497   1.513   1.513   1.519   1.514
    71.35    1.533   1.534   1.553   1.575   1.567   1.533   1.545   1.545   1.553   1.541   1.546   1.525   1.522   1.518   1.535   1.505   1.490   1.508   1.515   1.501   1.502   1.515   1.538   1.521   1.518   1.494   1.491   1.517   1.500   1.505   1.487   1.486   1.482
    67.29    1.531   1.533   1.548   1.570   1.556   1.567   1.568   1.562   1.554   1.565   1.531   1.526   1.522   1.533   1.520   1.512   1.494   1.501   1.526   1.506   1.522   1.520   1.511   1.504   1.515   1.490   1.505   1.503   1.510   1.505   1.502   1.493   1.489
    63.23    1.525   1.526   1.546   1.563   1.547   1.564   1.553   1.551   1.552   1.564   1.548   1.524   1.519   1.529   1.518   1.517   1.509   1.515   1.542   1.524   1.522   1.524   1.508   1.515   1.510   1.501   1.517   1.499   1.503   1.508   1.506   1.505   1.513
    59.16    1.513   1.541   1.530   1.541   1.539   1.541   1.564   1.562   1.574   1.562   1.531   1.522   1.519   1.518   1.525   1.531   1.523   1.517   1.527   1.493   1.517   1.520   1.532   1.520   1.525   1.513   1.508   1.495   1.514   1.499   1.511   1.504   1.511
    55.10    1.538   1.529   1.533   1.523   1.517   1.534   1.550   1.547   1.540   1.541   1.522   1.518   1.539   1.526   1.530   1.537   1.524   1.525   1.499   1.492   1.500   1.506   1.523   1.528   1.514   1.500   1.508   1.488   1.493   1.506   1.498   1.496   1.505
    51.04    1.531   1.555   1.533   1.523   1.525   1.518   1.516   1.528   1.538   1.510   1.510   1.516   1.529   1.529   1.530   1.531   1.511   1.506   1.495   1.502   1.485   1.493   1.524   1.522   1.544   1.512   1.482   1.500   1.493   1.487   1.495   1.493   1.517
    46.98    1.532   1.519   1.548   1.543   1.533   1.525   1.524   1.534   1.516   1.523   1.521   1.538   1.523   1.525   1.518   1.529   1.510   1.514   1.514   1.492   1.495   1.498   1.533   1.532   1.527   1.518   1.498   1.499   1.498   1.492   1.504   1.530   1.518
    42.91    1.537   1.523   1.516   1.541   1.541   1.539   1.531   1.534   1.530   1.507   1.506   1.522   1.526   1.510   1.496   1.498   1.493   1.493   1.491   1.502   1.497   1.523   1.528   1.521   1.507   1.504   1.501   1.509   1.502   1.510   1.503   1.534   1.527
    38.85    1.524   1.535   1.514   1.536   1.550   1.551   1.530   1.529   1.531   1.529   1.522   1.506   1.496   1.505   1.481   1.465   1.483   1.494   1.507   1.480   1.489   1.514   1.527   1.539   1.514   1.505   1.510   1.500   1.505   1.518   1.526   1.517   1.513
    34.79    1.520   1.532   1.527   1.519   1.537   1.525   1.529   1.527   1.532   1.522   1.506   1.493   1.502   1.493   1.481   1.466   1.480   1.485   1.494   1.489   1.491   1.505   1.494   1.527   1.507   1.501   1.505   1.505   1.511   1.520   1.533   1.520   1.503
    30.73    1.517   1.518   1.523   1.514   1.519   1.516   1.513   1.529   1.526   1.518   1.496   1.491   1.487   1.500   1.512   1.489   1.481   1.473   1.474   1.477   1.495   1.497   1.513   1.521   1.485   1.507   1.511   1.505   1.503   1.496   1.522   1.515   1.508
    26.66    1.501   1.505   1.535   1.526   1.536   1.531   1.520   1.523   1.523   1.509   1.491   1.494   1.499   1.518   1.504   1.489   1.492   1.505   1.489   1.489   1.501   1.510   1.515   1.502   1.488   1.498   1.492   1.506   1.494   1.509   1.510   1.508   1.506
    22.60    1.503   1.512   1.530   1.519   1.522   1.525   1.523   1.512   1.543   1.526   1.503   1.512   1.519   1.508   1.506   1.487   1.511   1.497   1.497   1.489   1.492   1.492   1.493   1.491   1.502   1.507   1.498   1.493   1.497   1.491   1.486   1.510   1.508

   Height   Standard deviation at grid points for the w component:
   152.60    1.194   1.201   1.204   1.213   1.207   1.204   1.227   1.225   1.216   1.198   1.194   1.195   1.207   1.205   1.198   1.190   1.189   1.208   1.209   1.194   1.204   1.197   1.193   1.211   1.202   1.217   1.218   1.225   1.219   1.209   1.207   1.219   1.213
   148.54    1.192   1.201   1.214   1.236   1.214   1.228   1.231   1.230   1.225   1.203   1.201   1.218   1.203   1.202   1.193   1.184   1.205   1.213   1.195   1.182   1.198   1.202   1.189   1.202   1.201   1.213   1.225   1.231   1.224   1.215   1.205   1.214   1.205
   144.48    1.183   1.194   1.203   1.223   1.243   1.247   1.232   1.214   1.211   1.199   1.202   1.218   1.214   1.203   1.194   1.197   1.211   1.207   1.201   1.190   1.193   1.198   1.185   1.195   1.212   1.211   1.232   1.231   1.216   1.210   1.225   1.211   1.209
   140.41    1.197   1.192   1.222   1.223   1.230   1.232   1.233   1.227   1.210   1.194   1.212   1.210   1.211   1.208   1.196   1.194   1.196   1.202   1.200   1.195   1.183   1.189   1.188   1.202   1.216   1.228   1.215   1.229   1.234   1.219   1.221   1.208   1.214
   136.35    1.221   1.217   1.218   1.222   1.225   1.230   1.221   1.224   1.209   1.210   1.202   1.219   1.207   1.212   1.193   1.196   1.182   1.195   1.211   1.187   1.175   1.193   1.190   1.189   1.200   1.206   1.212   1.226   1.235   1.230   1.219   1.224   1.203
   132.29    1.215   1.214   1.230   1.235   1.223   1.214   1.221   1.208   1.212   1.202   1.205   1.201   1.199   1.205   1.176   1.174   1.176   1.197   1.196   1.187   1.184   1.195   1.209   1.196   1.206   1.203   1.212   1.234   1.237   1.230   1.222   1.213   1.200
   128.23    1.215   1.227   1.246   1.234   1.222   1.206   1.212   1.200   1.196   1.195   1.194   1.193   1.205   1.183   1.180   1.185   1.180   1.184   1.183   1.187   1.173   1.196   1.201   1.207   1.195   1.204   1.211   1.210   1.228   1.231   1.233   1.233   1.207
   124.16    1.218   1.210   1.237   1.237   1.230   1.232   1.210   1.196   1.182   1.194   1.181   1.179   1.169   1.182   1.178   1.192   1.191   1.181   1.187   1.188   1.204   1.219   1.215   1.203   1.202   1.213   1.213   1.207   1.218   1.228   1.230   1.222   1.218
   120.10    1.213   1.200   1.223   1.229   1.211   1.223   1.224   1.204   1.179   1.193   1.183   1.169   1.179   1.173   1.193   1.204   1.207   1.196   1.182   1.204   1.205   1.215   1.226   1.230   1.226   1.226   1.216   1.223   1.210   1.223   1.226   1.219   1.220
   116.04    1.197   1.191   1.209   1.221   1.228   1.232   1.226   1.214   1.194   1.182   1.193   1.185   1.171   1.171   1.177   1.191   1.203   1.205   1.197   1.207   1.214   1.212   1.224   1.230   1.231   1.233   1.238   1.227   1.217   1.220   1.229   1.213   1.220
   111.98    1.184   1.190   1.203   1.211   1.233   1.220   1.220   1.210   1.216   1.192   1.191   1.184   1.182   1.179   1.186   1.187   1.192   1.204   1.193   1.197   1.208   1.208   1.216   1.209   1.216   1.224   1.220   1.226   1.231   1.233   1.232   1.223   1.241
   107.91    1.195   1.172   1.187   1.200   1.227   1.220   1.205   1.215   1.201   1.205   1.181   1.185   1.193   1.206   1.183   1.194   1.188   1.191   1.181   1.184   1.195   1.193   1.202   1.208   1.211   1.231   1.210   1.226   1.217   1.221   1.207   1.238   1.241
   103.85    1.194   1.196   1.190   1.195   1.204   1.218   1.221   1.220   1.220   1.222   1.207   1.199   1.197   1.197   1.186   1.187   1.194   1.191   1.179   1.187   1.194   1.208   1.200   1.205   1.210   1.215   1.200   1.216   1.210   1.211   1.212   1.221   1.229
    99.79    1.194   1.202   1.190   1.218   1.216   1.218   1.221   1.212   1.212   1.217   1.199   1.186   1.193   1.200   1.185   1.185   1.203   1.196   1.195   1.204   1.220   1.209   1.211   1.205   1.208   1.205   1.200   1.224   1.211   1.213   1.205   1.204   1.226
    95.73    1.205   1.199   1.198   1.204   1.199   1.219   1.222   1.215   1.214   1.202   1.210   1.194   1.181   1.192   1.195   1.193   1.192   1.197   1.211   1.215   1.215   1.205   1.210   1.203   1.195   1.187   1.208   1.221   1.210   1.227   1.209   1.199   1.220
    91.66    1.199   1.187   1.211   1.221   1.224   1.214   1.211   1.222   1.203   1.196   1.193   1.183   1.189   1.195   1.199   1.190   1.191   1.197   1.195   1.198   1.214   1.198   1.213   1.216   1.200   1.192   1.199   1.210   1.203   1.217   1.214   1.227   1.211
    87.60    1.189   1.185   1.207   1.214   1.216   1.206   1.212   1.208   1.200   1.185   1.194   1.189   1.201   1.189   1.182   1.180   1.194   1.209   1.189   1.207   1.205   1.216   1.221   1.207   1.199   1.191   1.202   1.203   1.213   1.208   1.218   1.215   1.208
    83.54    1.194   1.196   1.202   1.222   1.209   1.197   1.187   1.210   1.181   1.186   1.187   1.203   1.205   1.207   1.196   1.177   1.185   1.195   1.185   1.204   1.197   1.200   1.212   1.214   1.196   1.197   1.224   1.211   1.216   1.215   1.224   1.215   1.217
    79.48    1.196   1.202   1.197   1.203   1.190   1.188   1.194   1.200   1.196   1.197   1.207   1.208   1.208   1.197   1.197   1.161   1.174   1.171   1.187   1.192   1.191   1.194   1.206   1.225   1.226   1.212   1.230   1.218   1.208   1.205   1.222   1.217   1.203
    75.41    1.201   1.195   1.204   1.203   1.181   1.173   1.181   1.189   1.193   1.192   1.213   1.211   1.208   1.204   1.199   1.191   1.171   1.178   1.172   1.169   1.170   1.203   1.209   1.213   1.219   1.223   1.229   1.236   1.206   1.192   1.205   1.208   1.215
    71.35    1.189   1.187   1.196   1.194   1.181   1.173   1.184   1.181   1.188   1.189   1.188   1.191   1.187   1.199   1.196   1.181   1.170   1.162   1.181   1.178   1.193   1.195   1.209   1.205   1.208   1.224   1.230   1.228   1.229   1.204   1.202   1.213   1.196
    67.29    1.185   1.188   1.187   1.193   1.194   1.192   1.200   1.184   1.192   1.189   1.195   1.181   1.180   1.195   1.179   1.167   1.163   1.159   1.156   1.165   1.184   1.186   1.193   1.201   1.199   1.206   1.219   1.204   1.215   1.208   1.207   1.195   1.188
    63.23    1.196   1.172   1.176   1.203   1.196   1.189   1.197   1.189   1.198   1.198   1.200   1.181   1.188   1.180   1.167   1.166   1.170   1.165   1.168   1.175   1.196   1.196   1.192   1.194   1.201   1.195   1.209   1.199   1.200   1.205   1.190   1.197   1.187
    59.16    1.196   1.189   1.192   1.186   1.198   1.190   1.201   1.177   1.176   1.203   1.200   1.196   1.176   1.165   1.176   1.176   1.164   1.174   1.170   1.197   1.196   1.197   1.186   1.187   1.194   1.188   1.206   1.199   1.186   1.205   1.199   1.194   1.187
    55.10    1.208   1.199   1.197   1.192   1.191   1.196   1.198   1.178   1.191   1.207   1.205   1.183   1.172   1.178   1.167   1.165   1.164   1.184   1.184   1.200   1.201   1.201   1.183   1.182   1.190   1.194   1.192   1.182   1.198   1.201   1.188   1.191   1.198
    51.04    1.192   1.202   1.196   1.191   1.191   1.187   1.190   1.191   1.190   1.187   1.196   1.181   1.167   1.182   1.183   1.158   1.176   1.188   1.178   1.184   1.191   1.186   1.177   1.181   1.171   1.180   1.172   1.184   1.192   1.186   1.192   1.206   1.193
    46.98    1.181   1.186   1.190   1.200   1.195   1.185   1.185   1.177   1.182   1.186   1.181   1.183   1.191   1.176   1.177   1.164   1.179   1.183   1.186   1.195   1.180   1.187   1.196   1.179   1.184   1.190   1.181   1.190   1.182   1.179   1.200   1.195   1.196
    42.91    1.187   1.190   1.195   1.208   1.192   1.189   1.178   1.182   1.193   1.187   1.184   1.185   1.190   1.189   1.173   1.183   1.192   1.183   1.174   1.174   1.186   1.185   1.190   1.182   1.186   1.188   1.195   1.187   1.196   1.179   1.182   1.179   1.199
    38.85    1.192   1.175   1.185   1.185   1.183   1.170   1.179   1.190   1.193   1.177   1.188   1.175   1.190   1.195   1.194   1.200   1.206   1.198   1.190   1.184   1.191   1.195   1.183   1.194   1.192   1.211   1.206   1.197   1.195   1.196   1.188   1.190   1.205
    34.79    1.190   1.188   1.187   1.180   1.194   1.177   1.184   1.187   1.186   1.200   1.191   1.186   1.184   1.194   1.186   1.187   1.197   1.202   1.190   1.191   1.195   1.195   1.199   1.198   1.197   1.215   1.208   1.204   1.214   1.203   1.207   1.199   1.196
    30.73    1.181   1.195   1.183   1.189   1.191   1.192   1.190   1.194   1.195   1.198   1.188   1.185   1.192   1.191   1.188   1.194   1.186   1.179   1.185   1.192   1.186   1.192   1.190   1.201   1.198   1.201   1.204   1.204   1.200   1.194   1.205   1.196   1.199
    26.66    1.178   1.187   1.195   1.180   1.187   1.195   1.186   1.190   1.203   1.196   1.192   1.182   1.189   1.187   1.185   1.194   1.185   1.193   1.186   1.192   1.188   1.179   1.181   1.194   1.200   1.201   1.203   1.193   1.177   1.192   1.198   1.201   1.180
    22.60    1.182   1.177   1.177   1.179   1.184   1.190   1.197   1.194   1.192   1.195   1.195   1.187   1.180   1.189   1.192   1.190   1.186   1.182   1.182   1.186   1.190   1.183   1.182   1.182   1.190   1.196   1.206   1.189   1.191   1.197   1.189   1.183   1.180

   Mean standard deviation across all grid points:
      u component:    1.970 m/s
      v component:    1.521 m/s
      w component:    1.199 m/s


U-component (X) statistics from the hub grid point:

   Mean =  18.0000 m/s
   TI   =  11.2807 %

Nyquist frequency of turbulent wind field =        10.000 Hz


Processing complete.  2810.9 CPU seconds used.
