
This summary file was generated by TurbSim (v1.06.00, 21-Sep-2012) on 24-Sep-2020 at 12:57:41.


Runtime Options:

  65432154  Random seed #1
    RANLUX  Type of random number generator
         F  Output binary HH turbulence parameters?
         F  Output formatted turbulence parameters?
         F  Output AeroDyn HH files?
         T  Output AeroDyn FF files?
         F  Output BLADED FF files?
         T  Output tower data?
         F  Output formatted FF files?
         F  Output coherent turbulence time step file?
         T  Clockwise rotation when looking downwind?
 0 -  NONE  IEC turbulence models scaled to exact specified standard deviation


Turbine/Model Specifications:

        33  Vertical grid-point matrix dimension
        33  Horizontal grid-point matrix dimension
     0.050  Time step [seconds]
  3610.000  Analysis time [seconds]
  3610.000  Usable output time [seconds]
    87.600  Hub height [m]
   130.000  Grid height [m]
   130.000  Grid width [m]
     0.000  Vertical flow angle [degrees]
     0.000  Horizontal flow angle [degrees]


Meteorological Boundary Conditions:

    SMOOTH  RISO Smooth Terrain spectral model
       N/A  IEC standard
       N/A  IEC turbulence characteristic
       N/A  IEC turbulence type
       N/A  IEC Extreme Turbulence Model (ETM) "c" parameter [m/s]
       IEC  Wind profile type
    87.600  Reference height [m]
    22.000  Reference wind speed [m/s]
       N/A  Jet height [m]
     0.143  Power law exponent
     0.010  Surface roughness length [m]


Non-IEC Meteorological Boundary Conditions:

    45.000  Site latitude [degrees]
     0.050  Gradient Richardson number
     0.935  Friction or shear velocity [m/s]
       N/A  Mixing layer depth [m]
    -0.874  Mean hub u'w' Reynolds stress
       N/A  Mean hub u'v' Reynolds stress
       N/A  Mean hub v'w' Reynolds stress
(   22.000,  0.00    )  u-component coherence parameters
(   16.500,  0.00    )  v-component coherence parameters
(   16.500,  0.00    )  w-component coherence parameters
     0.000  Coherence exponent


You have requested that the following file(s) be generated:

   unsteady_tmp_22.bts (AeroDyn/TurbSim full-field wind file)


Turbulence Simulation Scaling Parameter Summary:

   Turbulence model used                            =  RISO Smooth Terrain
   Gradient Richardson number                       =    0.050
   Monin-Obukhov (M-O) z/L parameter                =    0.067
   Monin-Obukhov (M-O) length scale                 = 1314.000 m
   Mean wind speed at hub height                    =   22.000 m/s

   Wind profile type                                =  Power law on rotor disk, logarithmic elsewhere
   Power law exponent                               =    0.143
   Mean shear across rotor disk                     =    0.040 (m/s)/m
   Assumed rotor diameter                           =  130.000 m
   Surface roughness length                         =    0.010 m

   Number of time steps in the FFT                  =    72352
   Number of time steps output                      =    72319


Mean Flow Angles:

   Vertical   =   0.0 degrees
   Horizontal =   0.0 degrees

Mean Wind Speed Profile:

   Height    Wind Speed   Horizontal Angle  U-comp (X)   V-comp (Y)   W-comp (Z)
     (m)        (m/s)         (degrees)       (m/s)        (m/s)        (m/s)   
   ------    ----------   ----------------  ----------   ----------   ----------
    152.6       23.35            0.00         23.35         0.00         0.00
    148.5       23.73            0.00         23.73         0.00         0.00
    144.5       23.63            0.00         23.63         0.00         0.00
    140.4       23.54            0.00         23.54         0.00         0.00
    136.4       23.44            0.00         23.44         0.00         0.00
    132.3       23.34            0.00         23.34         0.00         0.00
    128.2       23.23            0.00         23.23         0.00         0.00
    124.2       23.13            0.00         23.13         0.00         0.00
    120.1       23.02            0.00         23.02         0.00         0.00
    116.0       22.90            0.00         22.90         0.00         0.00
    112.0       22.79            0.00         22.79         0.00         0.00
    107.9       22.67            0.00         22.67         0.00         0.00
    103.9       22.54            0.00         22.54         0.00         0.00
     99.8       22.41            0.00         22.41         0.00         0.00
     95.7       22.28            0.00         22.28         0.00         0.00
     91.7       22.14            0.00         22.14         0.00         0.00
     87.6       22.00            0.00         22.00         0.00         0.00
     83.5       21.85            0.00         21.85         0.00         0.00
     79.5       21.70            0.00         21.70         0.00         0.00
     75.4       21.53            0.00         21.53         0.00         0.00
     71.4       21.36            0.00         21.36         0.00         0.00
     67.3       21.19            0.00         21.19         0.00         0.00
     63.2       21.00            0.00         21.00         0.00         0.00
     59.2       20.80            0.00         20.80         0.00         0.00
     55.1       20.59            0.00         20.59         0.00         0.00
     51.0       20.36            0.00         20.36         0.00         0.00
     47.0       20.12            0.00         20.12         0.00         0.00
     42.9       19.87            0.00         19.87         0.00         0.00
     38.9       19.59            0.00         19.59         0.00         0.00
     34.8       19.28            0.00         19.28         0.00         0.00
     30.7       18.94            0.00         18.94         0.00         0.00
     26.7       18.56            0.00         18.56         0.00         0.00
     22.6       18.13            0.00         18.13         0.00         0.00
     18.5       18.24            0.00         18.24         0.00         0.00
     14.5       17.64            0.00         17.64         0.00         0.00
     10.4       16.84            0.00         16.84         0.00         0.00
      6.4       15.64            0.00         15.64         0.00         0.00
      2.3       13.17            0.00         13.17         0.00         0.00


Harvested Random Seeds after Generation of the Random Numbers:

    103196164 K1
            1 K2


Scaling statistics from the hub grid point:

   Cross-Component  Scaling Factor
   ---------------  --------------
   u'w'               -0.15919E+00
   u'v'                0.00000E+00
   v'w'                0.00000E+00


Hub-Height Simulated Turbulence Statistical Summary:

   Type of Wind        Min (m/s)   Mean (m/s)    Max (m/s)  Sigma (m/s)       TI (%)
   ----------------    ---------   ----------    ---------  -----------       ------
   Longitudinal (u)        13.21        22.00        31.35        2.475       11.251
   Lateral (v)             -7.44         0.00         8.36        1.844        8.384
   Vertical (w)            -5.15         0.00         5.81        1.457        6.621
   U component             13.21        22.00        31.35        2.475       11.251
   V component             -7.44         0.00         8.36        1.844        8.384
   W component             -5.15         0.00         5.81        1.457        6.621
   Horizontal (U&V)        13.32        22.08        31.35        2.466       11.170
   Total                   13.63        22.13        31.45        2.461       11.123

                       Min Reynolds     Mean Reynolds    Max Reynolds    Correlation
   Product             Stress (m/s)^2   Stress (m/s)^2   Stress (m/s)^2  Coefficient
   ----------------    --------------   --------------   --------------  -----------
   u'w'                    -31.337            -0.874            17.982        -0.242
   u'v'                    -36.009             0.093            39.456         0.020
   v'w'                    -20.058            -0.040            25.580        -0.015


   Friction Velocity (Ustar)  =      0.935 m/s
   Maximum Instantaneous TKE  =     46.775 (m/s)^2
   Maximum Instantaneous CTKE =     22.716 (m/s)^2


Grid Point Variance Summary:

   Y-coord  -65.00  -60.94  -56.88  -52.81  -48.75  -44.69  -40.62  -36.56  -32.50  -28.44  -24.38  -20.31  -16.25  -12.19   -8.12   -4.06    0.00    4.06    8.12   12.19   16.25   20.31   24.38   28.44   32.50   36.56   40.62   44.69   48.75   52.81   56.88   60.94   65.00

   Height   Standard deviation at grid points for the u component:
   152.60    2.288   2.292   2.316   2.320   2.286   2.332   2.306   2.308   2.272   2.248   2.299   2.317   2.314   2.333   2.356   2.365   2.328   2.330   2.388   2.395   2.347   2.341   2.303   2.307   2.317   2.280   2.238   2.188   2.215   2.231   2.250   2.216   2.266
   148.54    2.257   2.300   2.343   2.367   2.354   2.366   2.322   2.337   2.307   2.297   2.340   2.344   2.382   2.334   2.354   2.359   2.335   2.378   2.393   2.363   2.338   2.325   2.309   2.310   2.328   2.287   2.277   2.213   2.250   2.266   2.264   2.269   2.248
   144.48    2.312   2.340   2.355   2.413   2.393   2.392   2.371   2.365   2.325   2.317   2.348   2.393   2.398   2.380   2.376   2.322   2.371   2.369   2.382   2.395   2.352   2.372   2.350   2.322   2.294   2.272   2.263   2.227   2.286   2.258   2.264   2.260   2.296
   140.41    2.357   2.400   2.401   2.409   2.406   2.430   2.409   2.396   2.359   2.382   2.379   2.421   2.424   2.440   2.447   2.399   2.390   2.377   2.409   2.373   2.369   2.383   2.373   2.375   2.272   2.244   2.280   2.259   2.265   2.265   2.292   2.260   2.275
   136.35    2.403   2.396   2.430   2.424   2.454   2.449   2.473   2.414   2.390   2.403   2.456   2.458   2.400   2.473   2.440   2.437   2.429   2.457   2.450   2.374   2.372   2.393   2.357   2.311   2.324   2.261   2.287   2.289   2.290   2.271   2.287   2.270   2.268
   132.29    2.446   2.406   2.432   2.435   2.466   2.463   2.436   2.390   2.376   2.402   2.467   2.519   2.490   2.442   2.442   2.416   2.474   2.503   2.496   2.473   2.395   2.388   2.366   2.346   2.325   2.341   2.277   2.288   2.317   2.323   2.312   2.336   2.336
   128.23    2.425   2.424   2.413   2.442   2.441   2.403   2.419   2.418   2.390   2.443   2.473   2.518   2.505   2.484   2.478   2.450   2.481   2.488   2.492   2.449   2.463   2.414   2.356   2.344   2.328   2.328   2.352   2.328   2.302   2.325   2.295   2.332   2.370
   124.16    2.439   2.395   2.417   2.440   2.402   2.426   2.420   2.419   2.409   2.456   2.424   2.511   2.497   2.491   2.460   2.439   2.452   2.475   2.474   2.512   2.448   2.410   2.344   2.326   2.367   2.389   2.393   2.376   2.373   2.339   2.350   2.384   2.382
   120.10    2.433   2.406   2.432   2.443   2.410   2.412   2.443   2.476   2.471   2.468   2.456   2.464   2.534   2.484   2.499   2.445   2.482   2.505   2.472   2.420   2.412   2.359   2.378   2.401   2.422   2.437   2.413   2.417   2.360   2.357   2.379   2.421   2.370
   116.04    2.424   2.392   2.383   2.475   2.444   2.443   2.431   2.453   2.506   2.518   2.504   2.516   2.488   2.490   2.488   2.457   2.469   2.490   2.458   2.431   2.377   2.376   2.402   2.422   2.466   2.433   2.427   2.408   2.384   2.354   2.399   2.386   2.381
   111.98    2.412   2.380   2.398   2.463   2.493   2.494   2.480   2.444   2.524   2.475   2.463   2.505   2.522   2.465   2.479   2.482   2.496   2.494   2.440   2.412   2.417   2.387   2.428   2.432   2.435   2.446   2.428   2.394   2.376   2.376   2.372   2.365   2.397
   107.91    2.431   2.391   2.419   2.412   2.439   2.447   2.446   2.468   2.502   2.460   2.475   2.482   2.500   2.494   2.491   2.500   2.504   2.473   2.447   2.469   2.425   2.442   2.442   2.426   2.415   2.429   2.398   2.378   2.376   2.382   2.366   2.400   2.405
   103.85    2.405   2.406   2.382   2.394   2.394   2.450   2.436   2.457   2.460   2.487   2.480   2.449   2.456   2.496   2.511   2.498   2.487   2.463   2.456   2.466   2.492   2.503   2.507   2.430   2.428   2.407   2.401   2.335   2.347   2.368   2.367   2.359   2.367
    99.79    2.386   2.380   2.386   2.384   2.383   2.431   2.416   2.461   2.470   2.440   2.419   2.439   2.467   2.486   2.512   2.477   2.419   2.444   2.483   2.480   2.477   2.484   2.459   2.406   2.405   2.398   2.364   2.340   2.323   2.377   2.333   2.333   2.378
    95.73    2.436   2.449   2.356   2.342   2.404   2.422   2.424   2.418   2.464   2.427   2.417   2.439   2.441   2.464   2.520   2.473   2.435   2.420   2.481   2.505   2.475   2.445   2.415   2.397   2.378   2.360   2.315   2.334   2.333   2.337   2.376   2.374   2.432
    91.66    2.449   2.466   2.410   2.392   2.412   2.411   2.440   2.441   2.424   2.432   2.425   2.448   2.441   2.411   2.480   2.466   2.477   2.441   2.465   2.506   2.502   2.436   2.401   2.381   2.387   2.336   2.318   2.322   2.297   2.352   2.366   2.375   2.416
    87.60    2.453   2.470   2.452   2.440   2.430   2.426   2.454   2.441   2.445   2.455   2.462   2.415   2.441   2.439   2.429   2.470   2.475   2.502   2.474   2.501   2.475   2.475   2.443   2.419   2.401   2.367   2.334   2.356   2.340   2.349   2.364   2.444   2.431
    83.54    2.493   2.493   2.501   2.488   2.434   2.449   2.442   2.455   2.466   2.474   2.455   2.432   2.438   2.427   2.469   2.488   2.480   2.490   2.513   2.548   2.525   2.499   2.444   2.398   2.390   2.358   2.342   2.372   2.338   2.316   2.365   2.410   2.388
    79.48    2.475   2.451   2.453   2.508   2.490   2.476   2.515   2.499   2.482   2.449   2.471   2.443   2.430   2.394   2.448   2.472   2.456   2.440   2.473   2.435   2.470   2.458   2.394   2.372   2.356   2.365   2.352   2.363   2.348   2.313   2.350   2.418   2.425
    75.41    2.452   2.439   2.490   2.518   2.470   2.460   2.522   2.526   2.518   2.505   2.467   2.436   2.409   2.447   2.481   2.436   2.452   2.439   2.399   2.387   2.353   2.355   2.369   2.347   2.301   2.339   2.355   2.384   2.331   2.320   2.353   2.411   2.457
    71.35    2.435   2.419   2.457   2.483   2.457   2.484   2.520   2.521   2.518   2.527   2.509   2.494   2.418   2.456   2.458   2.453   2.421   2.400   2.376   2.343   2.330   2.295   2.304   2.313   2.319   2.355   2.310   2.323   2.326   2.378   2.411   2.415   2.442
    67.29    2.445   2.471   2.458   2.455   2.435   2.469   2.542   2.523   2.474   2.502   2.520   2.485   2.480   2.443   2.470   2.474   2.483   2.419   2.361   2.339   2.369   2.318   2.304   2.348   2.333   2.330   2.362   2.356   2.349   2.370   2.392   2.407   2.405
    63.23    2.433   2.467   2.459   2.461   2.436   2.446   2.502   2.494   2.482   2.486   2.430   2.474   2.490   2.490   2.465   2.483   2.420   2.375   2.348   2.350   2.362   2.368   2.345   2.333   2.308   2.378   2.375   2.366   2.400   2.424   2.404   2.455   2.414
    59.16    2.383   2.396   2.464   2.469   2.395   2.393   2.417   2.422   2.437   2.429   2.438   2.442   2.473   2.466   2.415   2.430   2.418   2.400   2.389   2.384   2.323   2.317   2.335   2.348   2.375   2.398   2.412   2.408   2.441   2.477   2.444   2.447   2.462
    55.10    2.410   2.395   2.437   2.403   2.418   2.408   2.391   2.381   2.423   2.422   2.471   2.485   2.471   2.454   2.457   2.457   2.424   2.393   2.369   2.357   2.342   2.352   2.383   2.386   2.369   2.408   2.400   2.428   2.424   2.436   2.458   2.411   2.420
    51.04    2.395   2.406   2.410   2.391   2.401   2.415   2.403   2.431   2.468   2.437   2.426   2.465   2.394   2.427   2.446   2.428   2.424   2.417   2.371   2.375   2.374   2.340   2.362   2.355   2.368   2.377   2.404   2.433   2.433   2.411   2.448   2.447   2.416
    46.98    2.421   2.417   2.406   2.435   2.410   2.422   2.430   2.434   2.456   2.445   2.454   2.464   2.439   2.406   2.403   2.394   2.389   2.407   2.410   2.424   2.374   2.357   2.390   2.394   2.363   2.349   2.378   2.381   2.420   2.435   2.459   2.462   2.410
    42.91    2.444   2.441   2.432   2.422   2.371   2.376   2.433   2.503   2.496   2.456   2.450   2.411   2.414   2.385   2.404   2.393   2.373   2.397   2.436   2.403   2.409   2.399   2.381   2.411   2.378   2.388   2.411   2.389   2.406   2.398   2.445   2.439   2.425
    38.85    2.414   2.406   2.393   2.407   2.388   2.394   2.472   2.483   2.469   2.450   2.426   2.435   2.410   2.412   2.363   2.338   2.371   2.372   2.388   2.418   2.447   2.397   2.412   2.389   2.381   2.413   2.384   2.405   2.387   2.444   2.406   2.418   2.413
    34.79    2.430   2.390   2.385   2.381   2.413   2.421   2.451   2.478   2.422   2.425   2.476   2.437   2.468   2.443   2.395   2.366   2.358   2.402   2.403   2.405   2.445   2.403   2.378   2.401   2.379   2.422   2.434   2.438   2.409   2.377   2.388   2.414   2.382
    30.73    2.408   2.394   2.421   2.426   2.415   2.468   2.436   2.432   2.437   2.441   2.467   2.451   2.417   2.397   2.406   2.383   2.376   2.384   2.387   2.363   2.384   2.435   2.425   2.436   2.428   2.449   2.457   2.442   2.461   2.418   2.424   2.440   2.412
    26.66    2.413   2.434   2.427   2.391   2.404   2.417   2.428   2.411   2.450   2.508   2.535   2.453   2.450   2.459   2.421   2.387   2.382   2.410   2.368   2.343   2.377   2.382   2.422   2.408   2.414   2.440   2.358   2.402   2.427   2.409   2.415   2.420   2.424
    22.60    2.428   2.423   2.435   2.416   2.429   2.403   2.413   2.442   2.498   2.486   2.471   2.506   2.434   2.388   2.417   2.383   2.389   2.364   2.374   2.366   2.388   2.370   2.391   2.393   2.426   2.458   2.381   2.414   2.395   2.370   2.390   2.417   2.401

   Height   Standard deviation at grid points for the v component:
   152.60    1.850   1.852   1.841   1.855   1.869   1.893   1.909   1.913   1.908   1.887   1.879   1.857   1.851   1.851   1.824   1.808   1.816   1.812   1.828   1.839   1.812   1.813   1.800   1.766   1.776   1.794   1.827   1.836   1.820   1.866   1.876   1.870   1.885
   148.54    1.852   1.866   1.864   1.863   1.889   1.902   1.901   1.927   1.895   1.903   1.884   1.874   1.883   1.872   1.860   1.823   1.811   1.824   1.835   1.833   1.828   1.847   1.830   1.774   1.780   1.770   1.817   1.811   1.824   1.841   1.848   1.855   1.880
   144.48    1.883   1.895   1.899   1.893   1.908   1.905   1.891   1.914   1.883   1.880   1.889   1.871   1.878   1.879   1.867   1.833   1.810   1.816   1.848   1.853   1.835   1.830   1.812   1.815   1.776   1.799   1.843   1.837   1.829   1.843   1.827   1.831   1.867
   140.41    1.890   1.897   1.888   1.908   1.930   1.943   1.947   1.913   1.898   1.894   1.905   1.882   1.870   1.851   1.855   1.828   1.808   1.852   1.834   1.824   1.798   1.819   1.798   1.823   1.825   1.829   1.856   1.858   1.828   1.829   1.817   1.820   1.836
   136.35    1.870   1.875   1.877   1.893   1.925   1.939   1.930   1.910   1.906   1.905   1.900   1.887   1.854   1.868   1.847   1.839   1.834   1.833   1.842   1.808   1.809   1.818   1.842   1.850   1.841   1.841   1.865   1.864   1.865   1.831   1.822   1.843   1.846
   132.29    1.879   1.873   1.888   1.874   1.883   1.938   1.946   1.917   1.906   1.910   1.894   1.865   1.856   1.852   1.849   1.843   1.850   1.831   1.816   1.841   1.827   1.834   1.842   1.856   1.890   1.869   1.850   1.850   1.837   1.838   1.828   1.848   1.858
   128.23    1.872   1.861   1.886   1.894   1.916   1.930   1.942   1.913   1.921   1.917   1.893   1.875   1.871   1.866   1.866   1.854   1.842   1.823   1.822   1.820   1.854   1.842   1.832   1.829   1.870   1.843   1.854   1.844   1.851   1.834   1.823   1.826   1.838
   124.16    1.867   1.846   1.870   1.877   1.901   1.922   1.918   1.931   1.931   1.922   1.904   1.857   1.875   1.878   1.846   1.845   1.859   1.848   1.838   1.841   1.885   1.870   1.838   1.832   1.838   1.845   1.847   1.821   1.826   1.807   1.837   1.806   1.822
   120.10    1.859   1.866   1.877   1.868   1.909   1.897   1.892   1.913   1.925   1.895   1.869   1.869   1.877   1.878   1.862   1.843   1.864   1.821   1.872   1.859   1.881   1.856   1.849   1.814   1.823   1.830   1.845   1.831   1.787   1.809   1.811   1.797   1.823
   116.04    1.885   1.889   1.874   1.878   1.901   1.909   1.893   1.888   1.901   1.905   1.885   1.899   1.865   1.859   1.859   1.852   1.881   1.882   1.874   1.884   1.873   1.857   1.852   1.854   1.845   1.850   1.844   1.835   1.802   1.803   1.790   1.803   1.815
   111.98    1.903   1.907   1.902   1.908   1.907   1.896   1.866   1.875   1.891   1.889   1.874   1.896   1.879   1.869   1.860   1.858   1.868   1.869   1.870   1.897   1.890   1.865   1.855   1.859   1.830   1.854   1.851   1.837   1.829   1.787   1.795   1.826   1.815
   107.91    1.868   1.895   1.905   1.885   1.873   1.870   1.875   1.868   1.895   1.913   1.890   1.852   1.873   1.852   1.856   1.858   1.887   1.877   1.873   1.868   1.847   1.842   1.818   1.826   1.828   1.836   1.837   1.846   1.838   1.850   1.823   1.828   1.828
   103.85    1.876   1.907   1.922   1.891   1.875   1.857   1.871   1.863   1.894   1.920   1.873   1.872   1.865   1.906   1.884   1.870   1.848   1.867   1.871   1.857   1.838   1.848   1.828   1.823   1.835   1.873   1.866   1.850   1.842   1.849   1.829   1.824   1.847
    99.79    1.923   1.918   1.887   1.898   1.868   1.872   1.867   1.879   1.887   1.887   1.881   1.866   1.875   1.907   1.899   1.873   1.854   1.846   1.857   1.858   1.845   1.840   1.835   1.843   1.867   1.875   1.862   1.865   1.860   1.864   1.843   1.859   1.859
    95.73    1.922   1.893   1.877   1.893   1.916   1.889   1.917   1.908   1.880   1.853   1.859   1.861   1.851   1.892   1.863   1.845   1.846   1.826   1.815   1.814   1.833   1.859   1.853   1.840   1.851   1.874   1.845   1.857   1.875   1.865   1.846   1.849   1.849
    91.66    1.908   1.893   1.905   1.922   1.921   1.906   1.884   1.910   1.886   1.870   1.879   1.875   1.874   1.870   1.856   1.833   1.833   1.840   1.823   1.821   1.792   1.798   1.809   1.824   1.836   1.861   1.857   1.845   1.859   1.875   1.859   1.841   1.835
    87.60    1.884   1.906   1.901   1.904   1.897   1.896   1.876   1.896   1.901   1.884   1.900   1.887   1.865   1.860   1.853   1.833   1.844   1.825   1.850   1.825   1.811   1.797   1.806   1.825   1.824   1.862   1.867   1.852   1.836   1.847   1.850   1.818   1.812
    83.54    1.880   1.877   1.896   1.917   1.912   1.891   1.877   1.881   1.912   1.887   1.894   1.883   1.882   1.860   1.866   1.864   1.846   1.855   1.850   1.834   1.824   1.807   1.799   1.842   1.843   1.833   1.834   1.826   1.817   1.827   1.838   1.828   1.823
    79.48    1.904   1.897   1.884   1.918   1.912   1.879   1.879   1.886   1.896   1.914   1.857   1.858   1.854   1.834   1.840   1.842   1.865   1.875   1.865   1.832   1.841   1.836   1.809   1.839   1.862   1.851   1.836   1.829   1.845   1.860   1.839   1.857   1.840
    75.41    1.880   1.903   1.893   1.883   1.903   1.869   1.868   1.866   1.879   1.895   1.875   1.834   1.858   1.856   1.838   1.839   1.830   1.849   1.844   1.826   1.866   1.844   1.834   1.847   1.858   1.846   1.828   1.848   1.826   1.844   1.844   1.852   1.845
    71.35    1.870   1.867   1.889   1.915   1.905   1.865   1.878   1.878   1.888   1.876   1.883   1.861   1.858   1.853   1.874   1.838   1.821   1.843   1.851   1.835   1.834   1.846   1.873   1.857   1.851   1.825   1.819   1.849   1.828   1.835   1.814   1.812   1.808
    67.29    1.867   1.866   1.884   1.908   1.893   1.907   1.909   1.900   1.891   1.904   1.867   1.861   1.856   1.871   1.857   1.846   1.825   1.834   1.863   1.838   1.857   1.853   1.842   1.836   1.846   1.819   1.838   1.832   1.844   1.838   1.834   1.822   1.820
    63.23    1.860   1.860   1.883   1.902   1.884   1.903   1.892   1.888   1.890   1.903   1.884   1.857   1.853   1.865   1.852   1.853   1.842   1.850   1.882   1.862   1.858   1.860   1.839   1.848   1.842   1.831   1.852   1.831   1.836   1.843   1.840   1.838   1.847
    59.16    1.845   1.875   1.863   1.876   1.872   1.875   1.906   1.901   1.916   1.901   1.864   1.855   1.852   1.851   1.863   1.867   1.859   1.851   1.861   1.823   1.852   1.857   1.870   1.854   1.860   1.847   1.839   1.825   1.849   1.832   1.849   1.836   1.846
    55.10    1.874   1.861   1.866   1.854   1.849   1.868   1.888   1.883   1.875   1.877   1.856   1.849   1.875   1.862   1.867   1.874   1.858   1.860   1.829   1.822   1.832   1.842   1.860   1.864   1.847   1.829   1.841   1.817   1.825   1.840   1.831   1.827   1.837
    51.04    1.863   1.891   1.868   1.855   1.857   1.850   1.848   1.862   1.872   1.841   1.843   1.848   1.862   1.866   1.869   1.869   1.843   1.839   1.826   1.834   1.815   1.825   1.858   1.856   1.882   1.843   1.811   1.832   1.825   1.818   1.828   1.824   1.851
    46.98    1.863   1.851   1.886   1.881   1.866   1.855   1.855   1.866   1.848   1.857   1.854   1.875   1.855   1.860   1.856   1.869   1.845   1.849   1.848   1.821   1.825   1.828   1.869   1.867   1.862   1.853   1.827   1.830   1.830   1.822   1.836   1.866   1.851
    42.91    1.871   1.854   1.848   1.876   1.876   1.874   1.862   1.867   1.861   1.836   1.837   1.857   1.861   1.844   1.829   1.831   1.825   1.824   1.821   1.834   1.830   1.859   1.861   1.852   1.838   1.836   1.831   1.842   1.834   1.844   1.833   1.867   1.862
    38.85    1.855   1.868   1.843   1.870   1.887   1.889   1.863   1.860   1.861   1.860   1.856   1.837   1.828   1.839   1.810   1.790   1.814   1.825   1.842   1.809   1.819   1.849   1.861   1.873   1.845   1.836   1.842   1.832   1.836   1.851   1.860   1.848   1.844
    34.79    1.851   1.865   1.858   1.849   1.870   1.856   1.861   1.859   1.864   1.853   1.836   1.823   1.834   1.823   1.810   1.793   1.811   1.816   1.827   1.820   1.820   1.837   1.822   1.858   1.836   1.830   1.834   1.835   1.844   1.853   1.866   1.852   1.832
    30.73    1.848   1.848   1.853   1.844   1.851   1.845   1.841   1.859   1.857   1.850   1.825   1.821   1.816   1.833   1.845   1.819   1.809   1.800   1.802   1.805   1.825   1.827   1.843   1.853   1.811   1.837   1.839   1.834   1.833   1.824   1.856   1.846   1.837
    26.66    1.831   1.833   1.869   1.857   1.868   1.863   1.849   1.852   1.852   1.838   1.819   1.822   1.826   1.851   1.834   1.817   1.820   1.836   1.818   1.816   1.830   1.842   1.846   1.831   1.815   1.826   1.818   1.834   1.823   1.838   1.841   1.839   1.835
    22.60    1.831   1.842   1.862   1.850   1.852   1.855   1.852   1.841   1.876   1.857   1.831   1.842   1.849   1.837   1.834   1.814   1.841   1.826   1.827   1.817   1.821   1.822   1.822   1.819   1.831   1.838   1.825   1.819   1.825   1.818   1.812   1.840   1.839

   Height   Standard deviation at grid points for the w component:
   152.60    1.457   1.464   1.467   1.477   1.472   1.468   1.496   1.492   1.481   1.459   1.455   1.456   1.470   1.468   1.460   1.453   1.450   1.474   1.475   1.458   1.468   1.459   1.454   1.475   1.462   1.481   1.484   1.491   1.483   1.472   1.470   1.486   1.477
   148.54    1.454   1.465   1.480   1.506   1.480   1.497   1.500   1.498   1.492   1.464   1.463   1.483   1.464   1.464   1.454   1.444   1.471   1.482   1.459   1.443   1.462   1.465   1.450   1.466   1.463   1.476   1.490   1.498   1.490   1.481   1.468   1.480   1.468
   144.48    1.443   1.455   1.467   1.490   1.516   1.519   1.502   1.481   1.475   1.460   1.464   1.484   1.479   1.467   1.456   1.460   1.477   1.473   1.468   1.452   1.456   1.462   1.444   1.456   1.476   1.474   1.499   1.497   1.481   1.473   1.492   1.475   1.473
   140.41    1.461   1.455   1.490   1.490   1.500   1.503   1.504   1.496   1.477   1.456   1.479   1.476   1.477   1.473   1.459   1.456   1.460   1.468   1.465   1.459   1.445   1.453   1.450   1.465   1.480   1.494   1.477   1.494   1.500   1.484   1.487   1.470   1.476
   136.35    1.489   1.483   1.485   1.490   1.493   1.499   1.489   1.492   1.474   1.475   1.465   1.486   1.472   1.478   1.455   1.460   1.443   1.458   1.479   1.451   1.436   1.456   1.451   1.452   1.463   1.469   1.476   1.492   1.500   1.496   1.484   1.490   1.465
   132.29    1.480   1.478   1.497   1.504   1.490   1.479   1.486   1.473   1.477   1.467   1.470   1.465   1.463   1.469   1.437   1.434   1.436   1.459   1.461   1.452   1.448   1.460   1.475   1.458   1.467   1.464   1.474   1.500   1.503   1.495   1.487   1.478   1.464
   128.23    1.479   1.494   1.514   1.502   1.489   1.471   1.477   1.464   1.458   1.456   1.457   1.457   1.471   1.445   1.440   1.448   1.442   1.446   1.445   1.450   1.434   1.460   1.465   1.471   1.455   1.464   1.475   1.474   1.494   1.495   1.499   1.500   1.470
   124.16    1.484   1.475   1.505   1.506   1.497   1.501   1.476   1.460   1.443   1.458   1.443   1.442   1.429   1.444   1.440   1.456   1.453   1.440   1.449   1.451   1.469   1.488   1.481   1.467   1.464   1.477   1.478   1.473   1.484   1.494   1.495   1.486   1.481
   120.10    1.479   1.464   1.491   1.496   1.474   1.491   1.493   1.470   1.440   1.458   1.446   1.431   1.442   1.433   1.456   1.468   1.473   1.460   1.443   1.471   1.470   1.481   1.494   1.497   1.491   1.493   1.482   1.491   1.476   1.489   1.492   1.483   1.483
   116.04    1.460   1.453   1.474   1.487   1.494   1.502   1.494   1.482   1.458   1.445   1.459   1.450   1.433   1.431   1.438   1.453   1.468   1.471   1.461   1.473   1.480   1.477   1.490   1.495   1.497   1.500   1.508   1.494   1.482   1.486   1.495   1.476   1.483
   111.98    1.444   1.452   1.468   1.477   1.503   1.488   1.488   1.476   1.484   1.457   1.455   1.446   1.444   1.440   1.449   1.448   1.454   1.468   1.456   1.460   1.473   1.473   1.481   1.474   1.479   1.491   1.486   1.493   1.499   1.501   1.500   1.489   1.509
   107.91    1.459   1.432   1.451   1.465   1.496   1.487   1.468   1.482   1.464   1.470   1.441   1.448   1.457   1.472   1.446   1.458   1.451   1.451   1.440   1.444   1.460   1.457   1.465   1.473   1.474   1.499   1.474   1.492   1.481   1.486   1.469   1.505   1.510
   103.85    1.457   1.460   1.454   1.460   1.468   1.484   1.487   1.487   1.487   1.490   1.471   1.462   1.460   1.460   1.448   1.449   1.456   1.452   1.440   1.448   1.457   1.474   1.464   1.470   1.476   1.480   1.462   1.478   1.471   1.475   1.475   1.487   1.495
    99.79    1.456   1.466   1.453   1.484   1.482   1.484   1.488   1.478   1.477   1.483   1.462   1.446   1.455   1.464   1.445   1.444   1.466   1.460   1.459   1.469   1.487   1.474   1.476   1.470   1.474   1.469   1.462   1.490   1.475   1.477   1.469   1.467   1.494
    95.73    1.470   1.464   1.462   1.468   1.463   1.485   1.488   1.479   1.480   1.464   1.474   1.457   1.441   1.452   1.456   1.454   1.453   1.461   1.476   1.481   1.480   1.469   1.473   1.467   1.458   1.448   1.470   1.486   1.473   1.494   1.472   1.462   1.487
    91.66    1.463   1.449   1.479   1.488   1.493   1.479   1.475   1.489   1.466   1.459   1.454   1.443   1.449   1.455   1.462   1.451   1.452   1.460   1.458   1.460   1.480   1.461   1.478   1.484   1.462   1.454   1.461   1.473   1.466   1.482   1.478   1.495   1.475
    87.60    1.451   1.448   1.472   1.481   1.482   1.470   1.476   1.472   1.462   1.447   1.456   1.450   1.466   1.450   1.444   1.440   1.457   1.474   1.451   1.472   1.468   1.482   1.488   1.472   1.461   1.451   1.463   1.467   1.477   1.470   1.483   1.480   1.471
    83.54    1.458   1.461   1.467   1.490   1.476   1.460   1.449   1.475   1.441   1.447   1.448   1.466   1.470   1.472   1.459   1.437   1.446   1.457   1.445   1.469   1.459   1.463   1.478   1.479   1.458   1.458   1.490   1.474   1.481   1.481   1.492   1.481   1.485
    79.48    1.460   1.467   1.463   1.468   1.454   1.451   1.456   1.465   1.459   1.459   1.471   1.471   1.472   1.460   1.461   1.420   1.435   1.431   1.448   1.455   1.455   1.459   1.473   1.494   1.493   1.476   1.497   1.482   1.471   1.469   1.488   1.483   1.468
    75.41    1.466   1.460   1.470   1.469   1.443   1.434   1.443   1.450   1.456   1.455   1.480   1.478   1.475   1.470   1.464   1.456   1.433   1.439   1.430   1.428   1.429   1.468   1.473   1.478   1.483   1.488   1.496   1.502   1.468   1.453   1.469   1.473   1.482
    71.35    1.451   1.449   1.460   1.458   1.442   1.434   1.446   1.442   1.449   1.451   1.450   1.455   1.451   1.463   1.461   1.441   1.429   1.420   1.443   1.439   1.457   1.458   1.473   1.468   1.471   1.490   1.496   1.493   1.496   1.468   1.466   1.478   1.459
    67.29    1.446   1.451   1.449   1.457   1.456   1.454   1.464   1.447   1.457   1.451   1.460   1.444   1.441   1.459   1.439   1.425   1.422   1.417   1.414   1.424   1.447   1.448   1.454   1.464   1.460   1.469   1.484   1.467   1.480   1.472   1.472   1.459   1.449
    63.23    1.460   1.432   1.436   1.466   1.459   1.451   1.460   1.453   1.463   1.462   1.464   1.443   1.450   1.443   1.426   1.425   1.430   1.425   1.428   1.436   1.459   1.459   1.454   1.457   1.465   1.458   1.474   1.461   1.463   1.468   1.452   1.461   1.448
    59.16    1.459   1.450   1.455   1.448   1.461   1.452   1.464   1.438   1.438   1.467   1.464   1.459   1.434   1.424   1.437   1.438   1.424   1.435   1.429   1.460   1.458   1.459   1.446   1.449   1.456   1.450   1.471   1.460   1.447   1.469   1.464   1.457   1.448
    55.10    1.471   1.462   1.460   1.454   1.452   1.459   1.460   1.438   1.453   1.471   1.469   1.443   1.431   1.439   1.426   1.423   1.423   1.446   1.444   1.463   1.462   1.463   1.443   1.443   1.452   1.457   1.454   1.442   1.461   1.464   1.449   1.453   1.461
    51.04    1.453   1.464   1.458   1.452   1.453   1.447   1.451   1.452   1.452   1.447   1.457   1.442   1.425   1.443   1.444   1.414   1.437   1.451   1.437   1.445   1.451   1.445   1.436   1.440   1.429   1.440   1.431   1.444   1.452   1.447   1.452   1.471   1.456
    46.98    1.441   1.446   1.450   1.461   1.457   1.446   1.446   1.437   1.443   1.447   1.441   1.442   1.452   1.434   1.436   1.422   1.438   1.444   1.447   1.456   1.439   1.447   1.457   1.438   1.445   1.451   1.439   1.450   1.442   1.437   1.462   1.458   1.458
    42.91    1.447   1.450   1.455   1.470   1.452   1.451   1.438   1.443   1.455   1.448   1.444   1.445   1.449   1.447   1.430   1.442   1.453   1.442   1.432   1.432   1.446   1.444   1.450   1.442   1.447   1.448   1.455   1.446   1.456   1.438   1.442   1.438   1.461
    38.85    1.453   1.434   1.445   1.443   1.442   1.427   1.440   1.452   1.454   1.435   1.447   1.434   1.450   1.455   1.454   1.460   1.468   1.458   1.450   1.445   1.452   1.456   1.442   1.454   1.452   1.473   1.467   1.456   1.454   1.457   1.447   1.449   1.466
    34.79    1.449   1.448   1.446   1.440   1.455   1.435   1.442   1.446   1.445   1.460   1.451   1.446   1.443   1.454   1.445   1.446   1.458   1.464   1.450   1.450   1.455   1.453   1.458   1.457   1.457   1.477   1.468   1.464   1.476   1.463   1.469   1.458   1.455
    30.73    1.438   1.454   1.441   1.448   1.449   1.451   1.447   1.452   1.453   1.457   1.446   1.444   1.451   1.450   1.447   1.452   1.445   1.436   1.443   1.449   1.443   1.450   1.447   1.460   1.457   1.460   1.463   1.464   1.460   1.452   1.465   1.455   1.459
    26.66    1.434   1.445   1.454   1.437   1.445   1.454   1.442   1.446   1.462   1.455   1.450   1.439   1.447   1.445   1.444   1.451   1.443   1.451   1.443   1.449   1.444   1.434   1.437   1.451   1.459   1.460   1.461   1.451   1.432   1.449   1.456   1.459   1.437
    22.60    1.438   1.432   1.433   1.434   1.440   1.447   1.454   1.451   1.449   1.452   1.452   1.443   1.436   1.446   1.449   1.446   1.442   1.437   1.438   1.442   1.446   1.439   1.437   1.436   1.446   1.452   1.464   1.445   1.446   1.454   1.445   1.438   1.435

   Mean standard deviation across all grid points:
      u component:    2.409 m/s
      v component:    1.855 m/s
      w component:    1.462 m/s


U-component (X) statistics from the hub grid point:

   Mean =  22.0000 m/s
   TI   =  11.2513 %

Nyquist frequency of turbulent wind field =        10.000 Hz


Processing complete.  2860.9 CPU seconds used.
