
This summary file was generated by TurbSim (v1.06.00, 21-Sep-2012) on 19-Oct-2020 at 12:20:53.


Runtime Options:

  65432154  Random seed #1
    RANLUX  Type of random number generator
         F  Output binary HH turbulence parameters?
         F  Output formatted turbulence parameters?
         F  Output AeroDyn HH files?
         T  Output AeroDyn FF files?
         F  Output BLADED FF files?
         T  Output tower data?
         F  Output formatted FF files?
         F  Output coherent turbulence time step file?
         T  Clockwise rotation when looking downwind?
 0 -  NONE  IEC turbulence models scaled to exact specified standard deviation


Turbine/Model Specifications:

        33  Vertical grid-point matrix dimension
        33  Horizontal grid-point matrix dimension
     0.050  Time step [seconds]
  1010.000  Analysis time [seconds]
  1010.000  Usable output time [seconds]
    87.600  Hub height [m]
   130.000  Grid height [m]
   130.000  Grid width [m]
     0.000  Vertical flow angle [degrees]
     0.000  Horizontal flow angle [degrees]


Meteorological Boundary Conditions:

    SMOOTH  RISO Smooth Terrain spectral model
       N/A  IEC standard
       N/A  IEC turbulence characteristic
       N/A  IEC turbulence type
       N/A  IEC Extreme Turbulence Model (ETM) "c" parameter [m/s]
       IEC  Wind profile type
    87.600  Reference height [m]
    14.000  Reference wind speed [m/s]
       N/A  Jet height [m]
     0.143  Power law exponent
     0.010  Surface roughness length [m]


Non-IEC Meteorological Boundary Conditions:

    45.000  Site latitude [degrees]
     0.050  Gradient Richardson number
     0.595  Friction or shear velocity [m/s]
       N/A  Mixing layer depth [m]
    -0.354  Mean hub u'w' Reynolds stress
       N/A  Mean hub u'v' Reynolds stress
       N/A  Mean hub v'w' Reynolds stress
(   14.000,  0.00    )  u-component coherence parameters
(   10.500,  0.00    )  v-component coherence parameters
(   10.500,  0.00    )  w-component coherence parameters
     0.000  Coherence exponent


You have requested that the following file(s) be generated:

   unsteady_tmp_14.bts (AeroDyn/TurbSim full-field wind file)


Turbulence Simulation Scaling Parameter Summary:

   Turbulence model used                            =  RISO Smooth Terrain
   Gradient Richardson number                       =    0.050
   Monin-Obukhov (M-O) z/L parameter                =    0.067
   Monin-Obukhov (M-O) length scale                 = 1314.000 m
   Mean wind speed at hub height                    =   14.000 m/s

   Wind profile type                                =  Power law on rotor disk, logarithmic elsewhere
   Power law exponent                               =    0.143
   Mean shear across rotor disk                     =    0.026 (m/s)/m
   Assumed rotor diameter                           =  130.000 m
   Surface roughness length                         =    0.010 m

   Number of time steps in the FFT                  =    20400
   Number of time steps output                      =    20386


Mean Flow Angles:

   Vertical   =   0.0 degrees
   Horizontal =   0.0 degrees

Mean Wind Speed Profile:

   Height    Wind Speed   Horizontal Angle  U-comp (X)   V-comp (Y)   W-comp (Z)
     (m)        (m/s)         (degrees)       (m/s)        (m/s)        (m/s)   
   ------    ----------   ----------------  ----------   ----------   ----------
    152.6       14.86            0.00         14.86         0.00         0.00
    148.5       15.10            0.00         15.10         0.00         0.00
    144.5       15.04            0.00         15.04         0.00         0.00
    140.4       14.98            0.00         14.98         0.00         0.00
    136.4       14.91            0.00         14.91         0.00         0.00
    132.3       14.85            0.00         14.85         0.00         0.00
    128.2       14.78            0.00         14.78         0.00         0.00
    124.2       14.72            0.00         14.72         0.00         0.00
    120.1       14.65            0.00         14.65         0.00         0.00
    116.0       14.57            0.00         14.57         0.00         0.00
    112.0       14.50            0.00         14.50         0.00         0.00
    107.9       14.42            0.00         14.42         0.00         0.00
    103.9       14.34            0.00         14.34         0.00         0.00
     99.8       14.26            0.00         14.26         0.00         0.00
     95.7       14.18            0.00         14.18         0.00         0.00
     91.7       14.09            0.00         14.09         0.00         0.00
     87.6       14.00            0.00         14.00         0.00         0.00
     83.5       13.91            0.00         13.91         0.00         0.00
     79.5       13.81            0.00         13.81         0.00         0.00
     75.4       13.70            0.00         13.70         0.00         0.00
     71.4       13.60            0.00         13.60         0.00         0.00
     67.3       13.48            0.00         13.48         0.00         0.00
     63.2       13.36            0.00         13.36         0.00         0.00
     59.2       13.24            0.00         13.24         0.00         0.00
     55.1       13.10            0.00         13.10         0.00         0.00
     51.0       12.96            0.00         12.96         0.00         0.00
     47.0       12.81            0.00         12.81         0.00         0.00
     42.9       12.64            0.00         12.64         0.00         0.00
     38.9       12.46            0.00         12.46         0.00         0.00
     34.8       12.27            0.00         12.27         0.00         0.00
     30.7       12.05            0.00         12.05         0.00         0.00
     26.7       11.81            0.00         11.81         0.00         0.00
     22.6       11.53            0.00         11.53         0.00         0.00
     18.5       11.60            0.00         11.60         0.00         0.00
     14.5       11.22            0.00         11.22         0.00         0.00
     10.4       10.72            0.00         10.72         0.00         0.00
      6.4        9.95            0.00          9.95         0.00         0.00
      2.3        8.38            0.00          8.38         0.00         0.00


Harvested Random Seeds after Generation of the Random Numbers:

    311051550 K1
            0 K2


Scaling statistics from the hub grid point:

   Cross-Component  Scaling Factor
   ---------------  --------------
   u'w'               -0.91203E-01
   u'v'                0.00000E+00
   v'w'                0.00000E+00


Hub-Height Simulated Turbulence Statistical Summary:

   Type of Wind        Min (m/s)   Mean (m/s)    Max (m/s)  Sigma (m/s)       TI (%)
   ----------------    ---------   ----------    ---------  -----------       ------
   Longitudinal (u)         8.64        14.00        19.19        1.648       11.773
   Lateral (v)             -4.32         0.00         4.76        1.267        9.049
   Vertical (w)            -2.76         0.00         3.96        0.899        6.424
   U component              8.64        14.00        19.19        1.648       11.773
   V component             -4.32         0.00         4.76        1.267        9.049
   W component             -2.76         0.00         3.96        0.899        6.424
   Horizontal (U&V)         8.64        14.06        19.25        1.637       11.646
   Total                    8.79        14.09        19.26        1.632       11.582

                       Min Reynolds     Mean Reynolds    Max Reynolds    Correlation
   Product             Stress (m/s)^2   Stress (m/s)^2   Stress (m/s)^2  Coefficient
   ----------------    --------------   --------------   --------------  -----------
   u'w'                    -12.258            -0.354             7.723        -0.239
   u'v'                    -12.926             0.023            15.458         0.011
   v'w'                     -6.732             0.022             9.543         0.019


   Friction Velocity (Ustar)  =      0.595 m/s
   Maximum Instantaneous TKE  =     17.461 (m/s)^2
   Maximum Instantaneous CTKE =      8.452 (m/s)^2


Grid Point Variance Summary:

   Y-coord  -65.00  -60.94  -56.88  -52.81  -48.75  -44.69  -40.62  -36.56  -32.50  -28.44  -24.38  -20.31  -16.25  -12.19   -8.12   -4.06    0.00    4.06    8.12   12.19   16.25   20.31   24.38   28.44   32.50   36.56   40.62   44.69   48.75   52.81   56.88   60.94   65.00

   Height   Standard deviation at grid points for the u component:
   152.60    1.454   1.422   1.441   1.507   1.543   1.541   1.582   1.604   1.675   1.627   1.582   1.549   1.545   1.582   1.628   1.578   1.601   1.602   1.557   1.506   1.493   1.472   1.516   1.554   1.598   1.626   1.639   1.588   1.564   1.539   1.474   1.469   1.448
   148.54    1.484   1.466   1.535   1.586   1.653   1.604   1.633   1.686   1.656   1.622   1.632   1.580   1.604   1.613   1.660   1.645   1.629   1.648   1.578   1.552   1.448   1.500   1.500   1.592   1.582   1.598   1.632   1.613   1.583   1.531   1.469   1.456   1.491
   144.48    1.510   1.498   1.579   1.649   1.650   1.675   1.638   1.640   1.655   1.682   1.684   1.652   1.591   1.608   1.675   1.595   1.615   1.625   1.582   1.464   1.429   1.443   1.502   1.591   1.596   1.623   1.645   1.583   1.586   1.590   1.548   1.527   1.535
   140.41    1.516   1.564   1.601   1.577   1.621   1.690   1.696   1.700   1.669   1.720   1.719   1.706   1.721   1.636   1.655   1.596   1.655   1.583   1.550   1.482   1.450   1.518   1.535   1.612   1.606   1.614   1.630   1.560   1.589   1.562   1.536   1.512   1.532
   136.35    1.590   1.595   1.565   1.593   1.667   1.666   1.705   1.675   1.659   1.625   1.706   1.676   1.675   1.688   1.666   1.659   1.619   1.592   1.542   1.532   1.485   1.556   1.586   1.567   1.624   1.640   1.633   1.580   1.640   1.595   1.518   1.551   1.559
   132.29    1.550   1.565   1.571   1.566   1.635   1.691   1.660   1.660   1.686   1.678   1.727   1.727   1.622   1.609   1.620   1.602   1.617   1.572   1.612   1.535   1.562   1.568   1.549   1.575   1.607   1.642   1.625   1.577   1.613   1.629   1.614   1.562   1.549
   128.23    1.570   1.573   1.586   1.605   1.582   1.671   1.664   1.649   1.666   1.648   1.731   1.716   1.650   1.585   1.614   1.639   1.551   1.609   1.556   1.596   1.558   1.511   1.488   1.561   1.635   1.598   1.606   1.646   1.642   1.638   1.632   1.654   1.622
   124.16    1.594   1.605   1.602   1.572   1.586   1.651   1.654   1.657   1.676   1.693   1.739   1.689   1.651   1.591   1.577   1.633   1.625   1.618   1.645   1.620   1.614   1.544   1.554   1.561   1.628   1.577   1.617   1.688   1.691   1.610   1.647   1.664   1.682
   120.10    1.589   1.609   1.609   1.577   1.550   1.496   1.609   1.661   1.719   1.683   1.717   1.665   1.614   1.595   1.601   1.605   1.618   1.634   1.698   1.678   1.607   1.595   1.580   1.593   1.595   1.584   1.600   1.629   1.678   1.668   1.616   1.600   1.630
   116.04    1.562   1.565   1.587   1.543   1.558   1.509   1.616   1.612   1.659   1.693   1.723   1.678   1.580   1.572   1.592   1.613   1.592   1.683   1.691   1.684   1.656   1.630   1.667   1.646   1.660   1.604   1.601   1.605   1.659   1.653   1.670   1.655   1.649
   111.98    1.545   1.608   1.602   1.574   1.541   1.598   1.615   1.619   1.635   1.639   1.661   1.659   1.617   1.590   1.570   1.566   1.587   1.671   1.656   1.649   1.647   1.639   1.679   1.661   1.687   1.619   1.641   1.664   1.751   1.698   1.674   1.692   1.711
   107.91    1.594   1.601   1.607   1.608   1.598   1.583   1.589   1.639   1.600   1.657   1.636   1.665   1.626   1.585   1.615   1.668   1.642   1.658   1.728   1.689   1.662   1.683   1.696   1.701   1.675   1.683   1.673   1.751   1.745   1.728   1.724   1.771   1.761
   103.85    1.584   1.529   1.582   1.579   1.618   1.607   1.639   1.644   1.607   1.624   1.673   1.636   1.680   1.725   1.664   1.738   1.736   1.709   1.668   1.661   1.675   1.660   1.674   1.679   1.690   1.668   1.738   1.737   1.761   1.743   1.747   1.874   1.822
    99.79    1.560   1.581   1.552   1.568   1.558   1.641   1.636   1.660   1.613   1.640   1.655   1.636   1.663   1.677   1.706   1.708   1.704   1.657   1.674   1.660   1.650   1.687   1.687   1.691   1.666   1.720   1.745   1.763   1.729   1.771   1.752   1.857   1.783
    95.73    1.573   1.562   1.552   1.528   1.567   1.618   1.624   1.637   1.653   1.632   1.650   1.590   1.670   1.650   1.634   1.702   1.651   1.632   1.666   1.627   1.688   1.702   1.739   1.738   1.725   1.777   1.768   1.721   1.776   1.764   1.789   1.805   1.817
    91.66    1.504   1.536   1.564   1.537   1.539   1.578   1.591   1.606   1.632   1.619   1.554   1.516   1.548   1.568   1.634   1.692   1.655   1.647   1.663   1.658   1.680   1.701   1.812   1.818   1.816   1.809   1.777   1.815   1.847   1.772   1.761   1.781   1.826
    87.60    1.554   1.549   1.551   1.499   1.547   1.519   1.546   1.591   1.562   1.536   1.575   1.523   1.580   1.570   1.621   1.688   1.648   1.701   1.689   1.680   1.725   1.704   1.783   1.835   1.842   1.872   1.846   1.806   1.811   1.810   1.753   1.785   1.857
    83.54    1.552   1.562   1.559   1.514   1.494   1.521   1.498   1.552   1.567   1.533   1.516   1.536   1.554   1.621   1.596   1.671   1.657   1.678   1.704   1.695   1.695   1.728   1.757   1.806   1.792   1.806   1.813   1.825   1.827   1.787   1.794   1.850   1.884
    79.48    1.498   1.505   1.499   1.524   1.464   1.454   1.480   1.481   1.556   1.536   1.528   1.581   1.586   1.645   1.621   1.660   1.661   1.685   1.721   1.722   1.738   1.755   1.790   1.810   1.779   1.761   1.777   1.764   1.784   1.782   1.852   1.883   1.855
    75.41    1.480   1.466   1.486   1.491   1.491   1.510   1.436   1.522   1.568   1.594   1.560   1.603   1.601   1.605   1.652   1.684   1.664   1.685   1.684   1.713   1.791   1.778   1.782   1.772   1.787   1.802   1.817   1.730   1.809   1.849   1.849   1.861   1.849
    71.35    1.536   1.546   1.543   1.526   1.492   1.527   1.517   1.577   1.629   1.603   1.613   1.618   1.600   1.598   1.670   1.711   1.768   1.743   1.757   1.819   1.813   1.819   1.784   1.801   1.764   1.756   1.724   1.783   1.796   1.844   1.842   1.848   1.859
    67.29    1.471   1.518   1.484   1.547   1.565   1.527   1.525   1.567   1.584   1.601   1.608   1.629   1.603   1.668   1.715   1.786   1.756   1.773   1.822   1.811   1.807   1.760   1.798   1.767   1.722   1.737   1.713   1.738   1.792   1.841   1.853   1.811   1.832
    63.23    1.469   1.522   1.512   1.534   1.520   1.533   1.534   1.542   1.549   1.567   1.566   1.614   1.618   1.696   1.712   1.779   1.796   1.808   1.786   1.845   1.830   1.769   1.738   1.737   1.735   1.730   1.748   1.698   1.769   1.788   1.778   1.811   1.816
    59.16    1.511   1.512   1.494   1.487   1.505   1.528   1.513   1.619   1.538   1.528   1.550   1.574   1.631   1.680   1.728   1.761   1.805   1.796   1.805   1.853   1.819   1.761   1.688   1.696   1.723   1.725   1.697   1.721   1.756   1.778   1.764   1.780   1.736
    55.10    1.548   1.542   1.517   1.475   1.497   1.473   1.485   1.564   1.559   1.536   1.512   1.551   1.599   1.670   1.737   1.781   1.754   1.755   1.778   1.836   1.806   1.733   1.775   1.730   1.776   1.698   1.664   1.698   1.771   1.754   1.768   1.728   1.724
    51.04    1.584   1.532   1.545   1.488   1.486   1.520   1.488   1.572   1.567   1.573   1.571   1.558   1.542   1.613   1.697   1.739   1.766   1.799   1.763   1.832   1.832   1.807   1.783   1.717   1.712   1.669   1.718   1.693   1.729   1.706   1.684   1.655   1.629
    46.98    1.542   1.554   1.531   1.533   1.527   1.486   1.531   1.587   1.599   1.605   1.580   1.557   1.518   1.545   1.649   1.708   1.737   1.761   1.759   1.804   1.815   1.762   1.747   1.705   1.746   1.708   1.711   1.697   1.733   1.737   1.639   1.593   1.608
    42.91    1.546   1.554   1.566   1.522   1.572   1.524   1.600   1.600   1.551   1.629   1.628   1.622   1.593   1.623   1.710   1.687   1.694   1.729   1.791   1.761   1.789   1.763   1.757   1.763   1.723   1.741   1.751   1.793   1.718   1.695   1.656   1.596   1.608
    38.85    1.555   1.557   1.556   1.519   1.526   1.532   1.595   1.610   1.628   1.642   1.637   1.672   1.674   1.643   1.701   1.673   1.718   1.713   1.777   1.778   1.777   1.796   1.760   1.788   1.750   1.754   1.745   1.796   1.733   1.687   1.652   1.652   1.661
    34.79    1.569   1.563   1.580   1.550   1.524   1.493   1.531   1.575   1.630   1.690   1.695   1.664   1.587   1.623   1.717   1.720   1.658   1.683   1.721   1.716   1.739   1.811   1.767   1.764   1.728   1.728   1.780   1.750   1.731   1.684   1.667   1.583   1.653
    30.73    1.534   1.581   1.559   1.547   1.507   1.545   1.576   1.563   1.591   1.609   1.644   1.631   1.690   1.714   1.715   1.725   1.719   1.700   1.713   1.683   1.697   1.718   1.703   1.703   1.687   1.752   1.762   1.669   1.687   1.642   1.648   1.648   1.655
    26.66    1.536   1.561   1.557   1.568   1.508   1.526   1.569   1.572   1.594   1.607   1.595   1.622   1.690   1.684   1.730   1.682   1.714   1.682   1.664   1.677   1.689   1.697   1.678   1.638   1.660   1.738   1.711   1.717   1.740   1.695   1.623   1.589   1.617
    22.60    1.542   1.553   1.578   1.601   1.585   1.593   1.549   1.584   1.528   1.612   1.599   1.619   1.667   1.654   1.661   1.619   1.653   1.671   1.640   1.622   1.646   1.652   1.686   1.615   1.642   1.672   1.658   1.642   1.690   1.655   1.584   1.611   1.618

   Height   Standard deviation at grid points for the v component:
   152.60    1.148   1.163   1.185   1.219   1.228   1.199   1.180   1.165   1.195   1.175   1.184   1.184   1.195   1.208   1.198   1.186   1.166   1.163   1.159   1.136   1.171   1.144   1.115   1.124   1.133   1.133   1.148   1.166   1.156   1.134   1.168   1.188   1.231
   148.54    1.139   1.155   1.167   1.197   1.216   1.183   1.169   1.181   1.198   1.214   1.195   1.181   1.180   1.199   1.197   1.181   1.143   1.155   1.175   1.149   1.178   1.158   1.172   1.177   1.182   1.141   1.150   1.161   1.168   1.154   1.158   1.189   1.234
   144.48    1.125   1.135   1.159   1.192   1.186   1.203   1.151   1.176   1.186   1.191   1.219   1.207   1.219   1.192   1.181   1.179   1.125   1.148   1.167   1.146   1.175   1.162   1.198   1.202   1.200   1.189   1.201   1.140   1.173   1.154   1.153   1.171   1.215
   140.41    1.136   1.109   1.177   1.166   1.166   1.184   1.208   1.199   1.183   1.210   1.201   1.193   1.182   1.202   1.186   1.180   1.118   1.131   1.140   1.148   1.166   1.209   1.195   1.231   1.223   1.204   1.197   1.221   1.213   1.149   1.132   1.146   1.206
   136.35    1.120   1.140   1.187   1.156   1.179   1.197   1.213   1.235   1.172   1.186   1.188   1.204   1.206   1.213   1.177   1.164   1.157   1.173   1.141   1.157   1.172   1.177   1.216   1.235   1.232   1.255   1.223   1.196   1.201   1.182   1.158   1.142   1.176
   132.29    1.138   1.147   1.171   1.181   1.185   1.204   1.191   1.246   1.225   1.231   1.230   1.200   1.225   1.228   1.177   1.209   1.149   1.167   1.142   1.140   1.196   1.216   1.228   1.252   1.249   1.269   1.239   1.192   1.193   1.201   1.210   1.150   1.190
   128.23    1.102   1.142   1.184   1.153   1.151   1.204   1.217   1.222   1.203   1.273   1.257   1.253   1.247   1.208   1.220   1.221   1.159   1.178   1.201   1.163   1.187   1.191   1.194   1.202   1.253   1.244   1.227   1.201   1.236   1.202   1.196   1.177   1.209
   124.16    1.115   1.131   1.128   1.148   1.147   1.202   1.195   1.167   1.215   1.250   1.262   1.266   1.239   1.243   1.201   1.182   1.200   1.206   1.181   1.197   1.183   1.169   1.179   1.188   1.197   1.199   1.192   1.205   1.211   1.215   1.207   1.225   1.213
   120.10    1.153   1.143   1.116   1.126   1.144   1.193   1.221   1.227   1.214   1.243   1.222   1.237   1.238   1.251   1.236   1.236   1.191   1.172   1.180   1.213   1.185   1.195   1.180   1.177   1.151   1.176   1.225   1.195   1.218   1.203   1.223   1.243   1.242
   116.04    1.151   1.153   1.139   1.115   1.139   1.157   1.191   1.213   1.220   1.235   1.240   1.261   1.264   1.266   1.267   1.222   1.203   1.182   1.191   1.216   1.210   1.214   1.204   1.186   1.160   1.177   1.192   1.178   1.225   1.233   1.241   1.235   1.221
   111.98    1.140   1.111   1.144   1.109   1.131   1.152   1.197   1.212   1.222   1.211   1.216   1.251   1.255   1.285   1.238   1.263   1.199   1.217   1.216   1.241   1.230   1.252   1.231   1.194   1.183   1.202   1.176   1.181   1.225   1.254   1.268   1.243   1.182
   107.91    1.125   1.133   1.147   1.163   1.131   1.186   1.197   1.221   1.236   1.239   1.226   1.260   1.255   1.265   1.262   1.262   1.246   1.220   1.201   1.227   1.237   1.240   1.229   1.222   1.200   1.189   1.161   1.161   1.215   1.235   1.231   1.208   1.180
   103.85    1.128   1.143   1.141   1.168   1.161   1.175   1.162   1.216   1.236   1.264   1.219   1.255   1.254   1.256   1.257   1.236   1.238   1.216   1.233   1.239   1.205   1.223   1.202   1.196   1.208   1.186   1.152   1.148   1.191   1.212   1.214   1.199   1.186
    99.79    1.092   1.100   1.159   1.150   1.179   1.203   1.191   1.212   1.236   1.237   1.235   1.267   1.240   1.257   1.247   1.258   1.251   1.247   1.261   1.235   1.223   1.199   1.200   1.191   1.190   1.179   1.153   1.133   1.164   1.178   1.187   1.182   1.173
    95.73    1.128   1.121   1.152   1.173   1.174   1.151   1.199   1.182   1.232   1.242   1.271   1.253   1.236   1.277   1.263   1.276   1.253   1.264   1.219   1.203   1.169   1.177   1.187   1.166   1.173   1.180   1.176   1.140   1.159   1.171   1.187   1.175   1.162
    91.66    1.156   1.152   1.157   1.133   1.174   1.169   1.171   1.215   1.262   1.279   1.236   1.236   1.228   1.229   1.245   1.254   1.254   1.273   1.280   1.210   1.214   1.160   1.161   1.189   1.183   1.180   1.129   1.146   1.187   1.138   1.160   1.172   1.135
    87.60    1.136   1.149   1.155   1.172   1.210   1.192   1.164   1.231   1.232   1.238   1.213   1.204   1.228   1.215   1.242   1.264   1.267   1.280   1.246   1.223   1.184   1.173   1.164   1.202   1.184   1.184   1.155   1.160   1.146   1.157   1.168   1.167   1.161
    83.54    1.138   1.152   1.193   1.200   1.203   1.206   1.202   1.205   1.200   1.193   1.187   1.179   1.195   1.203   1.219   1.249   1.257   1.271   1.236   1.221   1.199   1.195   1.184   1.179   1.188   1.187   1.144   1.128   1.113   1.157   1.134   1.149   1.167
    79.48    1.139   1.143   1.200   1.211   1.202   1.225   1.234   1.206   1.216   1.186   1.171   1.170   1.195   1.196   1.182   1.219   1.268   1.246   1.250   1.226   1.221   1.225   1.209   1.198   1.188   1.193   1.150   1.169   1.149   1.114   1.143   1.163   1.149
    75.41    1.120   1.165   1.189   1.180   1.219   1.224   1.207   1.205   1.201   1.185   1.172   1.173   1.190   1.169   1.203   1.237   1.245   1.265   1.255   1.249   1.223   1.219   1.175   1.188   1.177   1.210   1.211   1.183   1.171   1.144   1.133   1.152   1.159
    71.35    1.123   1.126   1.185   1.194   1.214   1.191   1.192   1.209   1.215   1.217   1.153   1.187   1.213   1.184   1.216   1.241   1.220   1.247   1.244   1.240   1.194   1.158   1.180   1.196   1.204   1.210   1.201   1.179   1.155   1.161   1.137   1.166   1.157
    67.29    1.161   1.162   1.190   1.204   1.233   1.195   1.205   1.161   1.221   1.234   1.199   1.191   1.213   1.217   1.191   1.209   1.219   1.228   1.254   1.222   1.173   1.192   1.166   1.207   1.208   1.232   1.176   1.181   1.175   1.160   1.187   1.170   1.175
    63.23    1.181   1.198   1.213   1.198   1.185   1.149   1.213   1.209   1.224   1.203   1.190   1.227   1.221   1.231   1.237   1.251   1.246   1.248   1.230   1.174   1.169   1.160   1.146   1.176   1.175   1.194   1.158   1.175   1.185   1.181   1.154   1.154   1.175
    59.16    1.178   1.175   1.178   1.226   1.180   1.158   1.191   1.183   1.220   1.218   1.239   1.237   1.217   1.227   1.241   1.250   1.233   1.287   1.223   1.217   1.191   1.154   1.158   1.166   1.176   1.217   1.231   1.197   1.170   1.142   1.142   1.167   1.138
    55.10    1.192   1.183   1.190   1.208   1.184   1.164   1.144   1.188   1.193   1.190   1.219   1.247   1.225   1.241   1.247   1.242   1.221   1.219   1.207   1.181   1.166   1.196   1.181   1.177   1.190   1.207   1.195   1.154   1.165   1.169   1.158   1.132   1.139
    51.04    1.162   1.150   1.202   1.160   1.141   1.124   1.152   1.158   1.182   1.191   1.227   1.239   1.238   1.242   1.245   1.242   1.228   1.190   1.197   1.202   1.180   1.195   1.163   1.137   1.151   1.137   1.164   1.139   1.153   1.157   1.162   1.108   1.103
    46.98    1.156   1.152   1.171   1.152   1.163   1.152   1.167   1.180   1.186   1.196   1.224   1.211   1.237   1.249   1.248   1.253   1.206   1.191   1.209   1.215   1.179   1.176   1.185   1.117   1.094   1.109   1.126   1.120   1.117   1.143   1.109   1.110   1.112
    42.91    1.144   1.147   1.153   1.166   1.162   1.136   1.146   1.183   1.181   1.206   1.228   1.235   1.241   1.241   1.273   1.244   1.231   1.188   1.186   1.171   1.144   1.157   1.176   1.148   1.095   1.122   1.097   1.137   1.156   1.134   1.114   1.119   1.109
    38.85    1.156   1.158   1.154   1.164   1.152   1.156   1.159   1.168   1.165   1.194   1.213   1.236   1.245   1.253   1.271   1.228   1.221   1.207   1.190   1.185   1.164   1.173   1.171   1.168   1.132   1.099   1.096   1.106   1.120   1.139   1.128   1.139   1.135
    34.79    1.147   1.143   1.207   1.198   1.148   1.151   1.146   1.171   1.181   1.181   1.207   1.221   1.223   1.242   1.241   1.221   1.213   1.188   1.169   1.181   1.181   1.200   1.184   1.188   1.130   1.115   1.140   1.108   1.138   1.142   1.146   1.150   1.171
    30.73    1.164   1.139   1.180   1.175   1.169   1.120   1.161   1.152   1.165   1.189   1.233   1.218   1.223   1.232   1.213   1.196   1.230   1.156   1.187   1.184   1.170   1.169   1.151   1.156   1.154   1.167   1.145   1.167   1.158   1.176   1.145   1.172   1.175
    26.66    1.150   1.148   1.149   1.171   1.177   1.179   1.157   1.146   1.130   1.193   1.235   1.250   1.228   1.228   1.206   1.190   1.193   1.197   1.215   1.212   1.199   1.179   1.168   1.154   1.142   1.169   1.161   1.151   1.154   1.183   1.166   1.144   1.181
    22.60    1.171   1.154   1.136   1.155   1.150   1.160   1.150   1.179   1.150   1.167   1.185   1.205   1.218   1.204   1.182   1.175   1.174   1.193   1.210   1.197   1.202   1.175   1.149   1.143   1.153   1.159   1.159   1.145   1.170   1.189   1.176   1.159   1.173

   Height   Standard deviation at grid points for the w component:
   152.60    0.910   0.913   0.929   0.934   0.943   0.941   0.932   0.961   0.952   0.944   0.939   0.938   0.931   0.918   0.890   0.904   0.878   0.876   0.860   0.845   0.848   0.866   0.869   0.877   0.894   0.868   0.892   0.908   0.915   0.909   0.903   0.919   0.901
   148.54    0.905   0.916   0.924   0.920   0.914   0.938   0.926   0.948   0.933   0.919   0.917   0.937   0.941   0.929   0.884   0.885   0.884   0.897   0.862   0.861   0.889   0.898   0.885   0.905   0.904   0.885   0.891   0.926   0.917   0.899   0.904   0.898   0.915
   144.48    0.904   0.928   0.931   0.949   0.926   0.937   0.946   0.945   0.927   0.922   0.926   0.925   0.926   0.909   0.913   0.885   0.869   0.875   0.876   0.867   0.876   0.910   0.913   0.928   0.915   0.899   0.892   0.895   0.889   0.905   0.887   0.895   0.896
   140.41    0.916   0.924   0.932   0.935   0.951   0.956   0.954   0.955   0.966   0.952   0.951   0.939   0.932   0.922   0.922   0.903   0.891   0.877   0.880   0.880   0.881   0.890   0.916   0.924   0.937   0.924   0.914   0.907   0.907   0.905   0.920   0.905   0.926
   136.35    0.939   0.945   0.925   0.934   0.954   0.932   0.946   0.953   0.963   0.974   0.949   0.943   0.949   0.937   0.938   0.919   0.912   0.887   0.875   0.873   0.913   0.918   0.919   0.933   0.942   0.932   0.922   0.929   0.932   0.928   0.902   0.909   0.920
   132.29    0.958   0.938   0.931   0.945   0.965   0.944   0.977   0.973   0.977   0.966   0.972   0.958   0.957   0.934   0.922   0.947   0.920   0.888   0.887   0.902   0.893   0.917   0.926   0.928   0.915   0.916   0.924   0.932   0.941   0.918   0.929   0.904   0.899
   128.23    0.966   0.962   0.951   0.969   0.974   0.985   0.977   0.957   0.960   0.959   0.965   0.970   0.971   0.935   0.928   0.918   0.913   0.916   0.911   0.916   0.891   0.885   0.908   0.904   0.904   0.901   0.941   0.931   0.931   0.923   0.925   0.930   0.926
   124.16    0.973   0.967   0.957   0.967   0.996   0.975   0.974   0.961   0.963   0.961   0.973   0.955   0.930   0.927   0.919   0.914   0.918   0.907   0.925   0.907   0.872   0.874   0.883   0.886   0.884   0.898   0.929   0.919   0.894   0.909   0.916   0.925   0.904
   120.10    0.971   0.970   0.967   0.966   0.942   0.965   0.967   0.960   0.941   0.966   0.961   0.953   0.925   0.919   0.916   0.942   0.931   0.914   0.921   0.893   0.868   0.852   0.887   0.868   0.879   0.903   0.939   0.899   0.891   0.912   0.906   0.901   0.903
   116.04    0.948   0.950   0.952   0.930   0.955   0.957   0.960   0.957   0.964   0.968   0.954   0.947   0.937   0.909   0.901   0.902   0.915   0.940   0.924   0.882   0.884   0.849   0.854   0.864   0.893   0.903   0.916   0.919   0.892   0.915   0.926   0.927   0.940
   111.98    0.956   0.944   0.931   0.949   0.952   0.985   0.984   0.985   0.984   0.976   0.960   0.952   0.943   0.911   0.903   0.888   0.915   0.925   0.907   0.904   0.874   0.832   0.848   0.873   0.889   0.911   0.915   0.926   0.934   0.925   0.918   0.932   0.945
   107.91    0.939   0.924   0.925   0.950   0.969   0.992   0.999   0.979   0.992   0.988   0.970   0.945   0.933   0.914   0.892   0.896   0.901   0.899   0.902   0.887   0.890   0.870   0.879   0.870   0.902   0.916   0.953   0.940   0.929   0.950   0.948   0.942   0.934
   103.85    0.952   0.940   0.920   0.961   0.988   0.993   0.991   0.979   0.970   0.980   0.977   0.943   0.931   0.921   0.914   0.923   0.930   0.913   0.900   0.894   0.891   0.861   0.863   0.868   0.890   0.916   0.927   0.933   0.937   0.944   0.961   0.953   0.934
    99.79    0.952   0.956   0.958   0.990   0.978   0.975   0.976   0.971   0.955   0.986   0.982   0.953   0.944   0.929   0.925   0.926   0.919   0.915   0.898   0.905   0.900   0.884   0.886   0.905   0.911   0.903   0.897   0.914   0.922   0.965   0.932   0.931   0.928
    95.73    0.964   1.001   0.992   0.980   0.988   0.964   0.965   0.966   0.979   0.963   0.951   0.946   0.949   0.953   0.947   0.936   0.916   0.904   0.899   0.907   0.919   0.905   0.906   0.898   0.908   0.883   0.885   0.889   0.910   0.919   0.939   0.939   0.946
    91.66    0.936   0.982   0.978   0.996   0.994   0.969   0.983   0.968   0.977   0.954   0.951   0.942   0.941   0.936   0.924   0.903   0.908   0.882   0.873   0.882   0.901   0.897   0.893   0.903   0.881   0.883   0.892   0.854   0.889   0.910   0.940   0.948   0.944
    87.60    0.934   0.941   0.962   0.970   0.972   0.956   0.965   0.970   0.960   0.960   0.974   0.946   0.929   0.936   0.916   0.912   0.899   0.909   0.883   0.899   0.918   0.903   0.900   0.910   0.908   0.881   0.895   0.900   0.887   0.922   0.944   0.952   0.942
    83.54    0.943   0.939   0.936   0.974   0.971   0.932   0.961   0.969   0.986   0.971   0.954   0.949   0.945   0.939   0.926   0.913   0.927   0.906   0.896   0.909   0.906   0.911   0.914   0.926   0.896   0.885   0.895   0.891   0.916   0.899   0.899   0.927   0.981
    79.48    0.917   0.931   0.953   0.979   0.958   0.953   0.965   0.974   0.985   0.983   0.957   0.943   0.947   0.936   0.932   0.939   0.916   0.926   0.910   0.925   0.927   0.914   0.909   0.918   0.912   0.920   0.908   0.906   0.927   0.922   0.912   0.928   0.947
    75.41    0.916   0.896   0.929   0.953   0.965   0.964   0.961   0.963   0.965   0.946   0.940   0.944   0.944   0.943   0.941   0.946   0.935   0.922   0.949   0.944   0.942   0.912   0.930   0.929   0.931   0.939   0.930   0.911   0.928   0.951   0.931   0.926   0.926
    71.35    0.905   0.900   0.921   0.936   0.940   0.944   0.950   0.973   0.942   0.920   0.923   0.932   0.933   0.925   0.924   0.935   0.938   0.941   0.936   0.950   0.947   0.950   0.969   0.939   0.957   0.945   0.923   0.914   0.937   0.933   0.947   0.940   0.925
    67.29    0.912   0.924   0.910   0.903   0.934   0.924   0.930   0.973   0.953   0.935   0.927   0.931   0.937   0.920   0.918   0.915   0.922   0.953   0.964   0.942   0.921   0.935   0.984   0.962   0.943   0.909   0.930   0.933   0.946   0.955   0.946   0.933   0.947
    63.23    0.910   0.900   0.910   0.905   0.913   0.912   0.939   0.943   0.921   0.923   0.898   0.912   0.919   0.917   0.904   0.902   0.916   0.943   0.928   0.929   0.946   0.950   0.985   0.966   0.936   0.936   0.933   0.924   0.919   0.936   0.934   0.949   0.943
    59.16    0.925   0.902   0.896   0.888   0.919   0.920   0.934   0.935   0.923   0.913   0.911   0.912   0.920   0.906   0.901   0.928   0.908   0.914   0.916   0.933   0.950   0.945   0.966   0.943   0.951   0.950   0.927   0.927   0.928   0.923   0.935   0.921   0.935
    55.10    0.928   0.908   0.892   0.888   0.896   0.917   0.915   0.906   0.915   0.916   0.901   0.902   0.927   0.905   0.924   0.930   0.936   0.930   0.913   0.925   0.929   0.962   0.933   0.935   0.944   0.954   0.921   0.912   0.934   0.929   0.936   0.944   0.945
    51.04    0.931   0.931   0.921   0.894   0.874   0.896   0.903   0.911   0.906   0.917   0.917   0.913   0.915   0.899   0.915   0.919   0.926   0.938   0.948   0.936   0.904   0.936   0.932   0.915   0.919   0.945   0.924   0.905   0.921   0.931   0.936   0.946   0.955
    46.98    0.925   0.913   0.910   0.898   0.889   0.906   0.883   0.900   0.924   0.923   0.923   0.907   0.914   0.914   0.915   0.903   0.907   0.926   0.955   0.936   0.931   0.937   0.922   0.943   0.926   0.913   0.910   0.906   0.929   0.947   0.928   0.938   0.920
    42.91    0.926   0.914   0.905   0.918   0.912   0.897   0.901   0.903   0.908   0.922   0.938   0.912   0.928   0.921   0.925   0.908   0.904   0.930   0.936   0.919   0.946   0.944   0.922   0.941   0.932   0.926   0.908   0.932   0.950   0.946   0.928   0.919   0.927
    38.85    0.933   0.930   0.902   0.927   0.912   0.910   0.889   0.893   0.890   0.918   0.926   0.916   0.929   0.921   0.931   0.919   0.905   0.928   0.933   0.950   0.943   0.945   0.961   0.939   0.937   0.916   0.921   0.951   0.937   0.944   0.947   0.946   0.918
    34.79    0.914   0.924   0.913   0.907   0.903   0.914   0.894   0.889   0.889   0.896   0.905   0.909   0.921   0.911   0.927   0.936   0.925   0.935   0.903   0.925   0.923   0.947   0.961   0.949   0.936   0.931   0.917   0.939   0.933   0.950   0.916   0.915   0.923
    30.73    0.907   0.898   0.918   0.904   0.911   0.897   0.897   0.895   0.894   0.909   0.916   0.909   0.910   0.911   0.922   0.948   0.939   0.925   0.907   0.929   0.957   0.968   0.961   0.955   0.942   0.939   0.951   0.946   0.953   0.941   0.917   0.919   0.940
    26.66    0.894   0.906   0.891   0.902   0.894   0.894   0.885   0.872   0.897   0.904   0.906   0.901   0.897   0.912   0.918   0.929   0.964   0.934   0.947   0.941   0.938   0.945   0.923   0.921   0.932   0.939   0.957   0.934   0.948   0.941   0.939   0.928   0.914
    22.60    0.900   0.883   0.887   0.893   0.901   0.896   0.894   0.898   0.905   0.887   0.909   0.903   0.921   0.909   0.905   0.912   0.920   0.927   0.926   0.917   0.915   0.908   0.912   0.918   0.929   0.926   0.944   0.927   0.923   0.940   0.926   0.929   0.917

   Mean standard deviation across all grid points:
      u component:    1.645 m/s
      v component:    1.189 m/s
      w component:    0.926 m/s


U-component (X) statistics from the hub grid point:

   Mean =  14.0000 m/s
   TI   =  11.7733 %

Nyquist frequency of turbulent wind field =        10.000 Hz


Processing complete.  899.47 CPU seconds used.
