
This summary file was generated by TurbSim (v1.06.00, 21-Sep-2012) on 15-Sep-2020 at 15:42:19.


Runtime Options:

  65432154  Random seed #1
    RANLUX  Type of random number generator
         F  Output binary HH turbulence parameters?
         F  Output formatted turbulence parameters?
         F  Output AeroDyn HH files?
         T  Output AeroDyn FF files?
         F  Output BLADED FF files?
         T  Output tower data?
         F  Output formatted FF files?
         F  Output coherent turbulence time step file?
         T  Clockwise rotation when looking downwind?
 0 -  NONE  IEC turbulence models scaled to exact specified standard deviation


Turbine/Model Specifications:

        33  Vertical grid-point matrix dimension
        33  Horizontal grid-point matrix dimension
     0.050  Time step [seconds]
   370.000  Analysis time [seconds]
   370.000  Usable output time [seconds]
    87.600  Hub height [m]
   130.000  Grid height [m]
   130.000  Grid width [m]
     0.000  Vertical flow angle [degrees]
     0.000  Horizontal flow angle [degrees]


Meteorological Boundary Conditions:

    SMOOTH  RISO Smooth Terrain spectral model
       N/A  IEC standard
       N/A  IEC turbulence characteristic
       N/A  IEC turbulence type
       N/A  IEC Extreme Turbulence Model (ETM) "c" parameter [m/s]
       IEC  Wind profile type
    87.600  Reference height [m]
    12.000  Reference wind speed [m/s]
       N/A  Jet height [m]
     0.143  Power law exponent
     0.010  Surface roughness length [m]


Non-IEC Meteorological Boundary Conditions:

    45.000  Site latitude [degrees]
     0.050  Gradient Richardson number
     0.510  Friction or shear velocity [m/s]
       N/A  Mixing layer depth [m]
    -0.260  Mean hub u'w' Reynolds stress
       N/A  Mean hub u'v' Reynolds stress
       N/A  Mean hub v'w' Reynolds stress
(   12.000,  0.00    )  u-component coherence parameters
(    9.000,  0.00    )  v-component coherence parameters
(    9.000,  0.00    )  w-component coherence parameters
     0.000  Coherence exponent


You have requested that the following file(s) be generated:

   unsteady_tmp_12.bts (AeroDyn/TurbSim full-field wind file)


Turbulence Simulation Scaling Parameter Summary:

   Turbulence model used                            =  RISO Smooth Terrain
   Gradient Richardson number                       =    0.050
   Monin-Obukhov (M-O) z/L parameter                =    0.067
   Monin-Obukhov (M-O) length scale                 = 1314.000 m
   Mean wind speed at hub height                    =   12.000 m/s

   Wind profile type                                =  Power law on rotor disk, logarithmic elsewhere
   Power law exponent                               =    0.143
   Mean shear across rotor disk                     =    0.022 (m/s)/m
   Assumed rotor diameter                           =  130.000 m
   Surface roughness length                         =    0.010 m

   Number of time steps in the FFT                  =     7644
   Number of time steps output                      =     7617


Mean Flow Angles:

   Vertical   =   0.0 degrees
   Horizontal =   0.0 degrees

Mean Wind Speed Profile:

   Height    Wind Speed   Horizontal Angle  U-comp (X)   V-comp (Y)   W-comp (Z)
     (m)        (m/s)         (degrees)       (m/s)        (m/s)        (m/s)   
   ------    ----------   ----------------  ----------   ----------   ----------
    152.6       12.73            0.00         12.73         0.00         0.00
    148.5       12.94            0.00         12.94         0.00         0.00
    144.5       12.89            0.00         12.89         0.00         0.00
    140.4       12.84            0.00         12.84         0.00         0.00
    136.4       12.78            0.00         12.78         0.00         0.00
    132.3       12.73            0.00         12.73         0.00         0.00
    128.2       12.67            0.00         12.67         0.00         0.00
    124.2       12.61            0.00         12.61         0.00         0.00
    120.1       12.55            0.00         12.55         0.00         0.00
    116.0       12.49            0.00         12.49         0.00         0.00
    112.0       12.43            0.00         12.43         0.00         0.00
    107.9       12.36            0.00         12.36         0.00         0.00
    103.9       12.30            0.00         12.30         0.00         0.00
     99.8       12.23            0.00         12.23         0.00         0.00
     95.7       12.15            0.00         12.15         0.00         0.00
     91.7       12.08            0.00         12.08         0.00         0.00
     87.6       12.00            0.00         12.00         0.00         0.00
     83.5       11.92            0.00         11.92         0.00         0.00
     79.5       11.83            0.00         11.83         0.00         0.00
     75.4       11.75            0.00         11.75         0.00         0.00
     71.4       11.65            0.00         11.65         0.00         0.00
     67.3       11.56            0.00         11.56         0.00         0.00
     63.2       11.45            0.00         11.45         0.00         0.00
     59.2       11.35            0.00         11.35         0.00         0.00
     55.1       11.23            0.00         11.23         0.00         0.00
     51.0       11.11            0.00         11.11         0.00         0.00
     47.0       10.98            0.00         10.98         0.00         0.00
     42.9       10.84            0.00         10.84         0.00         0.00
     38.9       10.68            0.00         10.68         0.00         0.00
     34.8       10.52            0.00         10.52         0.00         0.00
     30.7       10.33            0.00         10.33         0.00         0.00
     26.7       10.12            0.00         10.12         0.00         0.00
     22.6        9.89            0.00          9.89         0.00         0.00
     18.5        9.95            0.00          9.95         0.00         0.00
     14.5        9.62            0.00          9.62         0.00         0.00
     10.4        9.18            0.00          9.18         0.00         0.00
      6.4        8.53            0.00          8.53         0.00         0.00
      2.3        7.18            0.00          7.18         0.00         0.00


Harvested Random Seeds after Generation of the Random Numbers:

    116552746 K1
            0 K2


Scaling statistics from the hub grid point:

   Cross-Component  Scaling Factor
   ---------------  --------------
   u'w'               -0.72249E-01
   u'v'                0.00000E+00
   v'w'                0.00000E+00


Hub-Height Simulated Turbulence Statistical Summary:

   Type of Wind        Min (m/s)   Mean (m/s)    Max (m/s)  Sigma (m/s)       TI (%)
   ----------------    ---------   ----------    ---------  -----------       ------
   Longitudinal (u)         8.87        12.00        15.75        1.294       10.787
   Lateral (v)             -4.00         0.00         2.94        0.935        7.789
   Vertical (w)            -2.36         0.00         2.41        0.735        6.121
   U component              8.87        12.00        15.75        1.294       10.787
   V component             -4.00         0.00         2.94        0.935        7.789
   W component             -2.36         0.00         2.41        0.735        6.121
   Horizontal (U&V)         8.90        12.04        15.75        1.292       10.733
   Total                    8.94        12.06        15.78        1.289       10.690

                       Min Reynolds     Mean Reynolds    Max Reynolds    Correlation
   Product             Stress (m/s)^2   Stress (m/s)^2   Stress (m/s)^2  Coefficient
   ----------------    --------------   --------------   --------------  -----------
   u'w'                     -5.758            -0.260             4.536        -0.274
   u'v'                     -5.377             0.015             6.078         0.012
   v'w'                     -4.344             0.081             4.398         0.118


   Friction Velocity (Ustar)  =      0.510 m/s
   Maximum Instantaneous TKE  =      8.575 (m/s)^2
   Maximum Instantaneous CTKE =      3.506 (m/s)^2


Grid Point Variance Summary:

   Y-coord  -65.00  -60.94  -56.88  -52.81  -48.75  -44.69  -40.62  -36.56  -32.50  -28.44  -24.38  -20.31  -16.25  -12.19   -8.12   -4.06    0.00    4.06    8.12   12.19   16.25   20.31   24.38   28.44   32.50   36.56   40.62   44.69   48.75   52.81   56.88   60.94   65.00

   Height   Standard deviation at grid points for the u component:
   152.60    1.556   1.634   1.582   1.604   1.652   1.634   1.588   1.608   1.562   1.624   1.697   1.699   1.736   1.774   1.844   1.699   1.616   1.672   1.691   1.701   1.687   1.671   1.699   1.582   1.515   1.474   1.421   1.396   1.541   1.610   1.552   1.497   1.479
   148.54    1.647   1.672   1.574   1.578   1.620   1.583   1.543   1.621   1.624   1.577   1.599   1.652   1.742   1.780   1.773   1.774   1.666   1.736   1.802   1.754   1.657   1.670   1.669   1.521   1.502   1.489   1.497   1.459   1.519   1.639   1.568   1.549   1.601
   144.48    1.583   1.551   1.555   1.532   1.509   1.515   1.562   1.608   1.679   1.676   1.598   1.619   1.670   1.764   1.748   1.717   1.658   1.733   1.712   1.725   1.720   1.736   1.693   1.579   1.454   1.410   1.471   1.483   1.517   1.515   1.651   1.599   1.528
   140.41    1.569   1.597   1.539   1.583   1.520   1.490   1.527   1.575   1.609   1.604   1.548   1.587   1.619   1.662   1.701   1.771   1.659   1.641   1.750   1.790   1.719   1.633   1.588   1.558   1.449   1.446   1.541   1.516   1.490   1.556   1.608   1.611   1.601
   136.35    1.510   1.533   1.559   1.574   1.508   1.477   1.519   1.561   1.558   1.526   1.549   1.582   1.622   1.588   1.749   1.694   1.681   1.730   1.741   1.743   1.657   1.566   1.580   1.503   1.415   1.465   1.501   1.428   1.428   1.488   1.502   1.632   1.618
   132.29    1.537   1.480   1.511   1.441   1.518   1.550   1.504   1.520   1.448   1.403   1.492   1.574   1.651   1.698   1.754   1.650   1.760   1.787   1.759   1.772   1.633   1.495   1.466   1.420   1.447   1.441   1.483   1.531   1.402   1.478   1.567   1.721   1.754
   128.23    1.483   1.406   1.439   1.526   1.532   1.570   1.527   1.525   1.532   1.537   1.454   1.517   1.664   1.698   1.717   1.650   1.726   1.760   1.736   1.812   1.626   1.471   1.394   1.368   1.480   1.423   1.459   1.481   1.397   1.436   1.602   1.690   1.671
   124.16    1.405   1.392   1.494   1.499   1.510   1.615   1.609   1.577   1.574   1.518   1.561   1.554   1.616   1.643   1.753   1.668   1.660   1.727   1.731   1.740   1.582   1.466   1.384   1.396   1.403   1.445   1.431   1.454   1.447   1.411   1.519   1.614   1.602
   120.10    1.362   1.488   1.459   1.422   1.508   1.571   1.588   1.644   1.606   1.533   1.588   1.656   1.674   1.662   1.688   1.683   1.589   1.648   1.623   1.625   1.560   1.489   1.336   1.263   1.381   1.343   1.447   1.395   1.372   1.464   1.448   1.505   1.548
   116.04    1.390   1.450   1.394   1.406   1.396   1.549   1.626   1.673   1.566   1.545   1.577   1.566   1.620   1.584   1.512   1.599   1.601   1.606   1.610   1.588   1.528   1.490   1.384   1.366   1.317   1.336   1.365   1.365   1.318   1.393   1.451   1.519   1.494
   111.98    1.308   1.343   1.347   1.416   1.377   1.451   1.508   1.589   1.549   1.547   1.517   1.479   1.583   1.520   1.519   1.538   1.518   1.480   1.521   1.490   1.488   1.469   1.524   1.403   1.331   1.301   1.298   1.304   1.353   1.368   1.411   1.504   1.482
   107.91    1.253   1.329   1.259   1.361   1.384   1.372   1.394   1.487   1.433   1.550   1.493   1.440   1.562   1.582   1.580   1.638   1.568   1.495   1.499   1.455   1.398   1.420   1.444   1.369   1.374   1.369   1.296   1.279   1.322   1.289   1.328   1.410   1.442
   103.85    1.266   1.298   1.270   1.309   1.368   1.360   1.401   1.448   1.411   1.479   1.598   1.626   1.584   1.573   1.568   1.616   1.565   1.465   1.393   1.457   1.317   1.336   1.308   1.300   1.398   1.351   1.286   1.169   1.280   1.358   1.393   1.480   1.342
    99.79    1.152   1.212   1.335   1.317   1.280   1.393   1.372   1.451   1.347   1.458   1.535   1.648   1.530   1.494   1.599   1.544   1.523   1.402   1.396   1.320   1.306   1.306   1.220   1.209   1.217   1.347   1.351   1.264   1.211   1.316   1.415   1.407   1.337
    95.73    1.143   1.203   1.269   1.342   1.369   1.311   1.305   1.402   1.409   1.490   1.507   1.523   1.524   1.459   1.466   1.508   1.416   1.363   1.307   1.305   1.356   1.287   1.257   1.236   1.251   1.281   1.268   1.238   1.242   1.294   1.341   1.320   1.279
    91.66    1.160   1.236   1.271   1.320   1.317   1.269   1.303   1.418   1.432   1.423   1.342   1.437   1.436   1.320   1.327   1.376   1.342   1.292   1.242   1.292   1.359   1.336   1.264   1.188   1.256   1.264   1.247   1.270   1.351   1.242   1.261   1.255   1.195
    87.60    1.215   1.158   1.251   1.345   1.270   1.322   1.328   1.358   1.372   1.470   1.346   1.368   1.381   1.304   1.278   1.326   1.294   1.264   1.279   1.322   1.262   1.266   1.312   1.242   1.220   1.279   1.232   1.279   1.330   1.255   1.333   1.241   1.194
    83.54    1.195   1.166   1.286   1.307   1.243   1.192   1.265   1.259   1.313   1.384   1.298   1.275   1.299   1.253   1.275   1.358   1.263   1.253   1.201   1.215   1.213   1.244   1.258   1.169   1.242   1.290   1.203   1.274   1.381   1.259   1.309   1.238   1.321
    79.48    1.149   1.145   1.267   1.276   1.233   1.164   1.231   1.261   1.315   1.348   1.323   1.284   1.241   1.173   1.273   1.362   1.314   1.242   1.215   1.191   1.206   1.253   1.265   1.217   1.255   1.359   1.329   1.244   1.310   1.245   1.204   1.318   1.336
    75.41    1.179   1.209   1.195   1.261   1.161   1.181   1.209   1.247   1.300   1.345   1.332   1.265   1.281   1.326   1.286   1.320   1.348   1.382   1.312   1.250   1.262   1.254   1.216   1.269   1.299   1.313   1.414   1.333   1.294   1.225   1.208   1.292   1.326
    71.35    1.243   1.219   1.298   1.291   1.194   1.187   1.155   1.290   1.359   1.323   1.317   1.368   1.259   1.248   1.249   1.378   1.447   1.462   1.427   1.357   1.336   1.316   1.240   1.199   1.241   1.352   1.381   1.385   1.335   1.290   1.231   1.288   1.329
    67.29    1.229   1.258   1.253   1.261   1.199   1.249   1.358   1.307   1.383   1.340   1.367   1.402   1.308   1.277   1.282   1.332   1.324   1.445   1.455   1.362   1.342   1.338   1.265   1.254   1.247   1.263   1.282   1.258   1.240   1.256   1.325   1.247   1.276
    63.23    1.338   1.281   1.243   1.251   1.237   1.324   1.377   1.353   1.346   1.328   1.336   1.353   1.358   1.379   1.316   1.332   1.427   1.419   1.414   1.332   1.370   1.348   1.357   1.334   1.273   1.313   1.286   1.332   1.250   1.254   1.266   1.208   1.264
    59.16    1.274   1.312   1.266   1.302   1.336   1.411   1.416   1.441   1.378   1.336   1.385   1.419   1.466   1.375   1.419   1.399   1.435   1.350   1.341   1.429   1.363   1.326   1.246   1.280   1.292   1.247   1.241   1.297   1.321   1.330   1.235   1.265   1.200
    55.10    1.401   1.440   1.327   1.306   1.349   1.386   1.472   1.398   1.456   1.388   1.482   1.500   1.426   1.437   1.399   1.364   1.453   1.392   1.383   1.412   1.379   1.294   1.276   1.219   1.219   1.223   1.198   1.245   1.229   1.188   1.167   1.167   1.138
    51.04    1.448   1.438   1.458   1.342   1.307   1.382   1.408   1.417   1.324   1.431   1.458   1.485   1.507   1.505   1.491   1.507   1.398   1.402   1.395   1.434   1.333   1.278   1.231   1.253   1.256   1.303   1.255   1.251   1.124   1.187   1.156   1.175   1.154
    46.98    1.379   1.377   1.402   1.375   1.316   1.403   1.391   1.359   1.378   1.376   1.379   1.494   1.547   1.577   1.479   1.451   1.391   1.355   1.344   1.301   1.305   1.217   1.255   1.299   1.344   1.238   1.258   1.157   1.218   1.168   1.156   1.057   1.088
    42.91    1.351   1.328   1.390   1.394   1.408   1.367   1.487   1.389   1.434   1.364   1.470   1.491   1.476   1.563   1.596   1.464   1.424   1.413   1.351   1.266   1.306   1.309   1.260   1.265   1.289   1.309   1.257   1.193   1.164   1.103   1.095   1.080   1.015
    38.85    1.460   1.362   1.390   1.442   1.379   1.444   1.491   1.489   1.421   1.364   1.418   1.443   1.465   1.549   1.556   1.628   1.428   1.372   1.407   1.354   1.264   1.247   1.283   1.304   1.313   1.277   1.292   1.187   1.113   1.076   1.104   1.033   1.039
    34.79    1.437   1.460   1.387   1.422   1.446   1.523   1.561   1.489   1.405   1.422   1.396   1.436   1.377   1.456   1.551   1.619   1.425   1.417   1.440   1.294   1.221   1.328   1.369   1.312   1.277   1.187   1.204   1.147   1.081   1.139   1.041   1.048   1.050
    30.73    1.369   1.394   1.395   1.426   1.414   1.452   1.452   1.465   1.449   1.362   1.393   1.386   1.394   1.503   1.495   1.473   1.431   1.452   1.396   1.337   1.256   1.276   1.329   1.297   1.150   1.085   1.125   1.129   1.097   1.148   1.038   1.068   1.044
    26.66    1.319   1.335   1.330   1.353   1.383   1.454   1.428   1.348   1.405   1.413   1.423   1.474   1.428   1.484   1.458   1.460   1.392   1.363   1.391   1.327   1.341   1.283   1.288   1.240   1.138   1.103   1.139   1.118   1.217   1.170   1.058   1.136   1.105
    22.60    1.308   1.331   1.256   1.362   1.350   1.370   1.380   1.342   1.373   1.387   1.479   1.482   1.476   1.459   1.451   1.462   1.291   1.332   1.321   1.357   1.296   1.256   1.253   1.213   1.152   1.147   1.156   1.242   1.257   1.305   1.191   1.152   1.152

   Height   Standard deviation at grid points for the v component:
   152.60    0.762   0.779   0.807   0.767   0.812   0.812   0.803   0.831   0.804   0.776   0.761   0.822   0.820   0.825   0.812   0.869   0.896   0.919   0.921   0.943   0.940   0.917   0.912   0.858   0.839   0.810   0.790   0.833   0.848   0.840   0.876   0.889   0.897
   148.54    0.814   0.843   0.834   0.761   0.807   0.832   0.818   0.866   0.829   0.824   0.863   0.849   0.840   0.863   0.851   0.848   0.911   0.929   0.887   0.925   0.928   0.901   0.909   0.912   0.876   0.869   0.845   0.858   0.834   0.880   0.913   0.899   0.875
   144.48    0.862   0.884   0.856   0.804   0.818   0.804   0.825   0.832   0.823   0.897   0.906   0.863   0.881   0.847   0.840   0.838   0.870   0.888   0.920   0.954   0.958   0.962   0.917   0.887   0.872   0.829   0.842   0.812   0.861   0.876   0.877   0.873   0.875
   140.41    0.897   0.862   0.880   0.844   0.856   0.789   0.788   0.804   0.867   0.906   0.874   0.853   0.844   0.847   0.818   0.835   0.837   0.871   0.885   0.937   0.975   1.001   0.952   0.938   0.887   0.841   0.817   0.825   0.819   0.817   0.822   0.871   0.914
   136.35    0.939   0.915   0.866   0.877   0.863   0.791   0.824   0.827   0.851   0.871   0.892   0.916   0.869   0.856   0.882   0.899   0.894   0.861   0.883   0.914   0.929   0.967   0.956   0.935   0.881   0.827   0.842   0.825   0.804   0.808   0.859   0.874   0.893
   132.29    0.910   0.914   0.892   0.883   0.845   0.805   0.817   0.814   0.898   0.891   0.917   0.981   0.943   0.894   0.932   0.902   0.866   0.858   0.862   0.877   0.892   0.920   0.882   0.871   0.859   0.854   0.863   0.827   0.840   0.816   0.863   0.895   0.900
   128.23    0.917   0.891   0.897   0.883   0.934   0.878   0.863   0.868   0.872   0.950   0.970   0.984   0.966   0.960   0.971   0.925   0.939   0.867   0.879   0.883   0.861   0.926   0.894   0.849   0.869   0.866   0.780   0.817   0.831   0.845   0.854   0.883   0.857
   124.16    0.938   0.928   0.920   0.906   0.910   0.909   0.898   0.907   0.916   0.917   0.972   0.975   0.945   0.966   0.960   0.942   0.905   0.872   0.895   0.877   0.913   0.930   0.869   0.863   0.876   0.833   0.801   0.806   0.824   0.809   0.874   0.887   0.886
   120.10    0.929   0.935   0.923   0.890   0.912   0.962   0.905   0.913   0.909   0.891   0.950   0.918   0.941   0.944   0.937   0.953   0.921   0.881   0.875   0.874   0.876   0.887   0.862   0.871   0.872   0.827   0.818   0.834   0.852   0.872   0.857   0.910   0.862
   116.04    0.948   0.955   0.900   0.952   0.963   0.960   0.882   0.904   0.904   0.957   0.952   0.952   0.951   0.940   0.913   0.945   0.932   0.913   0.925   0.884   0.880   0.826   0.805   0.799   0.835   0.817   0.824   0.855   0.885   0.871   0.892   0.875   0.904
   111.98    0.952   0.947   0.904   0.914   0.961   0.940   0.878   0.883   0.908   0.939   0.903   0.933   0.904   0.940   0.953   0.966   0.934   0.918   0.943   0.878   0.836   0.822   0.820   0.809   0.822   0.848   0.837   0.866   0.901   0.883   0.924   0.939   0.954
   107.91    0.941   0.872   0.856   0.906   0.925   0.897   0.879   0.891   0.917   0.907   0.917   0.917   0.888   0.926   0.915   0.904   0.926   0.977   0.899   0.916   0.891   0.875   0.835   0.843   0.851   0.829   0.887   0.864   0.928   0.953   0.966   0.938   1.013
   103.85    0.938   0.889   0.853   0.848   0.829   0.841   0.859   0.910   0.895   0.939   0.925   0.909   0.912   0.901   0.886   0.918   0.925   0.949   0.960   0.925   0.872   0.903   0.861   0.857   0.847   0.899   0.894   0.900   0.965   0.981   0.969   0.995   1.021
    99.79    0.911   0.891   0.897   0.865   0.815   0.901   0.904   0.924   0.952   0.928   0.929   0.926   0.927   0.905   0.935   0.945   0.975   0.954   0.930   0.910   0.885   0.842   0.861   0.827   0.868   0.885   0.903   0.869   0.958   1.009   1.040   1.024   1.057
    95.73    0.933   0.961   0.942   0.960   0.894   0.908   0.911   0.945   0.928   0.935   0.941   0.951   0.924   0.851   0.923   0.924   0.943   0.956   0.969   0.945   0.950   0.879   0.898   0.911   0.926   0.891   0.861   0.894   0.936   0.995   1.031   1.147   1.117
    91.66    1.011   0.957   0.972   0.980   0.911   0.928   0.900   0.908   0.891   0.898   0.915   0.936   0.909   0.914   0.933   0.949   0.988   0.958   0.977   0.982   0.962   0.897   0.901   0.917   0.958   0.896   0.863   0.949   0.984   1.022   1.070   1.110   1.149
    87.60    0.955   0.956   0.934   0.943   0.934   0.953   0.894   0.903   0.933   0.920   0.969   0.982   0.917   0.939   0.944   0.942   0.935   0.912   0.965   0.976   0.966   0.909   0.972   0.939   0.930   0.929   0.931   0.964   1.004   1.034   1.082   1.123   1.096
    83.54    0.919   0.930   0.951   0.898   0.934   0.950   0.920   0.923   0.968   0.952   0.924   0.946   0.955   0.962   0.939   0.923   0.915   0.965   0.942   0.973   0.957   0.955   0.948   0.941   0.882   0.955   0.948   1.014   1.060   1.061   1.042   1.097   1.088
    79.48    0.917   0.881   0.945   0.918   0.925   0.956   0.932   0.923   0.929   0.912   0.878   0.943   0.983   0.976   0.980   0.935   1.009   0.980   0.925   0.943   0.985   0.943   0.929   0.902   0.915   0.937   0.974   1.007   1.022   1.055   1.050   1.029   1.036
    75.41    0.904   0.934   0.931   0.943   0.956   0.988   0.940   0.955   0.958   0.978   0.958   0.913   0.946   0.929   0.950   0.997   0.975   0.956   0.925   0.916   0.933   0.991   0.952   0.922   0.933   0.931   0.955   1.008   1.058   1.051   1.046   1.022   1.040
    71.35    0.912   0.890   0.860   0.904   0.953   0.981   0.962   0.968   1.003   0.982   1.011   0.995   0.956   0.937   0.924   0.936   0.920   0.949   0.911   0.931   0.961   0.974   0.981   0.970   0.944   0.955   0.987   1.007   1.058   1.070   1.037   1.045   1.037
    67.29    0.896   0.894   0.887   0.907   0.938   0.967   0.955   0.973   1.006   0.960   0.970   0.936   0.919   0.871   0.864   0.936   0.895   0.910   0.940   0.950   0.937   0.968   0.957   1.011   1.019   1.001   0.996   0.995   1.055   1.093   1.074   1.092   1.084
    63.23    0.939   0.902   0.910   0.927   0.949   0.976   0.953   0.914   0.959   0.978   0.926   0.907   0.915   0.913   0.900   0.926   0.888   0.946   0.930   0.943   0.926   0.923   0.940   0.990   0.990   1.032   1.004   0.977   0.999   1.056   1.088   1.113   1.083
    59.16    0.968   0.926   0.912   0.909   0.909   0.960   0.964   0.885   0.931   0.890   0.922   0.877   0.886   0.918   0.911   0.953   0.892   0.933   0.967   0.981   0.911   0.903   0.931   0.992   0.971   1.018   1.010   1.008   0.965   1.005   1.053   1.073   1.074
    55.10    0.918   0.876   0.933   0.944   0.935   0.927   0.917   0.904   0.889   0.884   0.902   0.885   0.852   0.910   0.916   0.943   0.909   0.916   0.978   0.990   0.981   0.936   0.955   0.993   1.009   1.031   1.014   1.014   0.992   1.005   1.072   1.043   1.032
    51.04    0.972   0.939   0.914   0.907   0.939   0.941   0.961   1.001   0.954   0.949   0.938   0.954   0.928   0.927   0.956   0.933   0.931   0.946   0.971   0.992   0.995   0.962   0.968   0.993   1.010   1.004   0.958   0.998   1.047   1.085   1.060   1.058   1.072
    46.98    0.971   0.932   0.930   0.944   0.965   0.951   1.018   1.054   0.998   0.969   0.902   0.959   1.000   1.004   0.985   0.947   0.958   1.048   1.027   0.975   0.969   0.953   0.983   0.979   0.942   1.014   0.981   1.029   1.035   1.043   1.045   1.059   1.050
    42.91    1.000   0.985   0.959   0.927   0.961   0.979   0.980   1.033   0.984   0.989   0.934   0.951   0.978   1.004   0.973   0.957   0.972   1.013   1.010   1.041   0.967   0.955   0.971   0.977   0.920   0.957   1.002   1.036   1.030   1.033   1.024   1.005   1.034
    38.85    0.974   0.931   0.959   0.978   0.995   1.007   0.993   1.020   1.053   0.971   0.963   0.898   0.942   0.992   1.026   1.041   0.990   1.026   1.034   1.015   1.025   0.997   0.995   0.977   0.965   0.971   0.988   1.025   1.056   1.044   1.028   0.997   1.051
    34.79    1.016   1.035   1.002   1.042   1.002   1.003   0.964   1.043   1.012   0.996   0.981   0.954   0.940   0.988   0.988   1.021   0.991   1.012   1.010   1.043   1.040   1.013   1.005   1.010   0.995   0.982   1.008   1.073   1.049   1.040   1.011   1.005   1.017
    30.73    1.013   1.068   1.074   1.025   0.972   0.954   0.957   0.977   0.998   0.951   0.956   0.964   0.955   0.945   0.991   0.984   1.007   1.021   1.056   1.066   1.056   1.045   0.988   1.004   1.029   1.001   1.022   1.039   1.019   1.004   1.001   1.023   1.049
    26.66    1.018   1.074   1.067   1.036   0.964   0.955   0.955   0.962   0.987   1.026   0.969   0.994   0.994   0.995   1.017   1.006   0.990   0.977   0.988   0.987   1.024   1.004   1.009   1.026   1.028   0.987   1.044   1.043   1.014   1.014   1.021   1.029   1.002
    22.60    1.002   1.033   1.053   1.005   1.008   0.994   0.956   0.955   1.004   0.979   0.989   0.985   0.974   0.989   0.990   0.980   0.989   0.969   1.012   1.003   0.970   0.974   0.988   1.020   0.995   1.039   1.048   1.059   1.019   0.992   0.999   0.988   1.019

   Height   Standard deviation at grid points for the w component:
   152.60    0.812   0.809   0.778   0.776   0.750   0.786   0.791   0.777   0.771   0.786   0.821   0.775   0.754   0.794   0.751   0.755   0.783   0.802   0.819   0.746   0.749   0.768   0.811   0.784   0.811   0.806   0.808   0.821   0.799   0.816   0.806   0.776   0.816
   148.54    0.805   0.809   0.764   0.807   0.800   0.821   0.783   0.790   0.760   0.782   0.797   0.753   0.741   0.769   0.761   0.743   0.762   0.778   0.794   0.755   0.748   0.763   0.756   0.754   0.730   0.781   0.797   0.820   0.843   0.849   0.821   0.797   0.795
   144.48    0.829   0.844   0.838   0.812   0.784   0.797   0.786   0.766   0.778   0.811   0.801   0.761   0.770   0.795   0.802   0.792   0.767   0.772   0.766   0.772   0.768   0.751   0.751   0.722   0.740   0.768   0.809   0.842   0.871   0.817   0.817   0.815   0.846
   140.41    0.855   0.852   0.833   0.834   0.820   0.846   0.792   0.742   0.786   0.799   0.828   0.789   0.786   0.791   0.813   0.811   0.756   0.738   0.767   0.788   0.785   0.734   0.690   0.680   0.721   0.780   0.796   0.856   0.873   0.814   0.811   0.811   0.824
   136.35    0.848   0.834   0.838   0.846   0.845   0.846   0.785   0.765   0.782   0.791   0.822   0.812   0.838   0.817   0.804   0.817   0.817   0.763   0.760   0.757   0.778   0.742   0.709   0.734   0.750   0.776   0.805   0.807   0.806   0.764   0.776   0.793   0.805
   132.29    0.807   0.831   0.856   0.901   0.883   0.881   0.829   0.796   0.816   0.860   0.880   0.846   0.869   0.805   0.832   0.812   0.811   0.809   0.793   0.804   0.763   0.718   0.756   0.762   0.770   0.800   0.769   0.790   0.745   0.747   0.785   0.785   0.785
   128.23    0.826   0.841   0.868   0.922   0.859   0.853   0.833   0.865   0.858   0.827   0.878   0.857   0.840   0.812   0.815   0.830   0.830   0.843   0.843   0.812   0.782   0.784   0.767   0.755   0.760   0.735   0.767   0.739   0.711   0.747   0.751   0.773   0.794
   124.16    0.825   0.880   0.883   0.891   0.860   0.833   0.819   0.834   0.821   0.862   0.873   0.870   0.840   0.842   0.822   0.871   0.828   0.819   0.806   0.794   0.789   0.778   0.770   0.713   0.719   0.747   0.758   0.763   0.715   0.705   0.757   0.775   0.803
   120.10    0.835   0.857   0.902   0.851   0.827   0.859   0.825   0.817   0.801   0.844   0.871   0.875   0.864   0.853   0.833   0.849   0.825   0.800   0.770   0.790   0.779   0.719   0.744   0.725   0.718   0.744   0.745   0.726   0.746   0.733   0.761   0.802   0.807
   116.04    0.840   0.882   0.889   0.880   0.855   0.854   0.828   0.804   0.797   0.819   0.824   0.861   0.848   0.877   0.845   0.837   0.811   0.802   0.780   0.766   0.750   0.744   0.732   0.767   0.768   0.728   0.733   0.760   0.769   0.743   0.765   0.793   0.803
   111.98    0.825   0.844   0.896   0.858   0.845   0.818   0.833   0.823   0.813   0.785   0.803   0.847   0.827   0.825   0.822   0.817   0.812   0.798   0.792   0.793   0.754   0.762   0.778   0.768   0.752   0.724   0.772   0.761   0.775   0.791   0.780   0.777   0.793
   107.91    0.838   0.862   0.879   0.833   0.837   0.812   0.813   0.825   0.807   0.793   0.800   0.770   0.825   0.853   0.818   0.815   0.824   0.804   0.790   0.773   0.787   0.793   0.756   0.759   0.764   0.736   0.747   0.782   0.788   0.797   0.789   0.819   0.819
   103.85    0.850   0.859   0.862   0.835   0.824   0.837   0.838   0.801   0.811   0.807   0.793   0.795   0.826   0.821   0.785   0.795   0.793   0.758   0.811   0.788   0.778   0.765   0.755   0.770   0.751   0.754   0.754   0.762   0.765   0.784   0.782   0.799   0.774
    99.79    0.850   0.866   0.855   0.838   0.843   0.851   0.814   0.804   0.832   0.828   0.792   0.793   0.815   0.785   0.798   0.786   0.794   0.782   0.803   0.755   0.782   0.800   0.782   0.774   0.739   0.742   0.755   0.757   0.739   0.746   0.764   0.787   0.773
    95.73    0.844   0.843   0.864   0.828   0.808   0.810   0.845   0.833   0.810   0.800   0.781   0.777   0.795   0.789   0.790   0.783   0.793   0.764   0.751   0.765   0.790   0.780   0.758   0.768   0.764   0.772   0.745   0.722   0.704   0.704   0.741   0.730   0.755
    91.66    0.810   0.872   0.849   0.839   0.817   0.821   0.842   0.843   0.831   0.795   0.767   0.769   0.785   0.750   0.758   0.752   0.748   0.729   0.741   0.784   0.805   0.787   0.779   0.767   0.770   0.748   0.743   0.720   0.720   0.694   0.750   0.765   0.797
    87.60    0.822   0.845   0.858   0.830   0.830   0.843   0.846   0.808   0.792   0.783   0.772   0.758   0.739   0.767   0.744   0.761   0.735   0.736   0.764   0.779   0.794   0.792   0.815   0.804   0.783   0.753   0.752   0.727   0.680   0.739   0.765   0.798   0.786
    83.54    0.853   0.873   0.844   0.855   0.845   0.880   0.834   0.836   0.779   0.778   0.785   0.742   0.744   0.755   0.756   0.746   0.743   0.741   0.764   0.766   0.781   0.803   0.822   0.780   0.798   0.750   0.750   0.751   0.744   0.746   0.766   0.744   0.792
    79.48    0.846   0.877   0.865   0.868   0.852   0.861   0.849   0.807   0.769   0.765   0.783   0.768   0.754   0.758   0.753   0.742   0.739   0.771   0.797   0.758   0.786   0.781   0.799   0.815   0.789   0.747   0.761   0.738   0.747   0.759   0.791   0.790   0.828
    75.41    0.858   0.847   0.850   0.854   0.861   0.822   0.812   0.786   0.755   0.798   0.770   0.763   0.768   0.741   0.740   0.759   0.794   0.781   0.777   0.762   0.773   0.769   0.773   0.799   0.777   0.718   0.734   0.733   0.749   0.793   0.797   0.784   0.828
    71.35    0.821   0.822   0.842   0.792   0.789   0.815   0.793   0.758   0.761   0.773   0.774   0.795   0.735   0.747   0.772   0.799   0.768   0.787   0.774   0.783   0.789   0.799   0.753   0.754   0.780   0.771   0.727   0.719   0.757   0.778   0.789   0.794   0.830
    67.29    0.815   0.821   0.815   0.802   0.769   0.774   0.765   0.759   0.768   0.782   0.778   0.791   0.795   0.776   0.788   0.794   0.800   0.794   0.771   0.825   0.801   0.777   0.770   0.761   0.746   0.743   0.719   0.700   0.732   0.766   0.797   0.823   0.797
    63.23    0.828   0.822   0.817   0.779   0.780   0.747   0.782   0.729   0.753   0.773   0.792   0.779   0.813   0.794   0.820   0.817   0.816   0.803   0.811   0.814   0.809   0.798   0.784   0.780   0.723   0.751   0.715   0.693   0.725   0.733   0.766   0.808   0.786
    59.16    0.807   0.824   0.809   0.781   0.775   0.755   0.775   0.754   0.733   0.748   0.782   0.814   0.803   0.815   0.800   0.848   0.831   0.856   0.834   0.847   0.826   0.811   0.813   0.820   0.783   0.760   0.757   0.723   0.742   0.743   0.784   0.813   0.823
    55.10    0.815   0.813   0.808   0.774   0.762   0.766   0.751   0.754   0.755   0.800   0.784   0.822   0.783   0.826   0.807   0.814   0.841   0.832   0.830   0.816   0.805   0.785   0.797   0.800   0.782   0.761   0.744   0.711   0.774   0.790   0.786   0.789   0.826
    51.04    0.823   0.792   0.796   0.796   0.765   0.778   0.772   0.754   0.782   0.748   0.766   0.783   0.788   0.804   0.812   0.814   0.821   0.828   0.812   0.797   0.799   0.777   0.803   0.787   0.788   0.783   0.753   0.746   0.751   0.776   0.794   0.789   0.806
    46.98    0.818   0.810   0.792   0.793   0.788   0.784   0.762   0.756   0.746   0.778   0.760   0.782   0.810   0.827   0.807   0.805   0.796   0.803   0.805   0.791   0.807   0.806   0.794   0.811   0.818   0.780   0.770   0.756   0.778   0.764   0.776   0.773   0.775
    42.91    0.819   0.786   0.787   0.767   0.785   0.784   0.781   0.787   0.789   0.792   0.786   0.773   0.802   0.796   0.824   0.793   0.810   0.807   0.814   0.795   0.813   0.791   0.791   0.781   0.784   0.766   0.759   0.762   0.768   0.756   0.781   0.773   0.760
    38.85    0.818   0.802   0.779   0.779   0.795   0.764   0.740   0.764   0.777   0.798   0.775   0.783   0.773   0.787   0.801   0.805   0.811   0.817   0.786   0.806   0.780   0.791   0.757   0.813   0.791   0.780   0.792   0.749   0.730   0.734   0.777   0.794   0.761
    34.79    0.814   0.819   0.798   0.777   0.739   0.749   0.742   0.758   0.766   0.774   0.775   0.766   0.812   0.798   0.786   0.794   0.805   0.828   0.808   0.798   0.779   0.781   0.778   0.791   0.781   0.799   0.784   0.783   0.764   0.742   0.760   0.790   0.772
    30.73    0.805   0.806   0.789   0.776   0.756   0.735   0.713   0.735   0.767   0.795   0.776   0.781   0.795   0.807   0.797   0.816   0.816   0.793   0.814   0.788   0.757   0.744   0.765   0.753   0.784   0.792   0.767   0.780   0.762   0.783   0.783   0.769   0.746
    26.66    0.806   0.793   0.765   0.777   0.772   0.740   0.745   0.774   0.768   0.760   0.765   0.775   0.783   0.794   0.795   0.784   0.775   0.760   0.791   0.771   0.769   0.728   0.732   0.737   0.762   0.768   0.765   0.786   0.773   0.787   0.786   0.770   0.761
    22.60    0.773   0.786   0.781   0.792   0.792   0.778   0.791   0.782   0.787   0.770   0.775   0.779   0.793   0.786   0.783   0.781   0.775   0.779   0.766   0.768   0.752   0.772   0.749   0.763   0.760   0.783   0.776   0.781   0.763   0.776   0.761   0.780   0.766

   Mean standard deviation across all grid points:
      u component:    1.404 m/s
      v component:    0.937 m/s
      w component:    0.790 m/s


U-component (X) statistics from the hub grid point:

   Mean =  12.0000 m/s
   TI   =  10.7869 %

Nyquist frequency of turbulent wind field =        10.000 Hz


Processing complete.  385.34 CPU seconds used.
