
This summary file was generated by TurbSim (v1.06.00, 21-Sep-2012) on 15-Sep-2020 at 15:55:40.


Runtime Options:

  65432154  Random seed #1
    RANLUX  Type of random number generator
         F  Output binary HH turbulence parameters?
         F  Output formatted turbulence parameters?
         F  Output AeroDyn HH files?
         T  Output AeroDyn FF files?
         F  Output BLADED FF files?
         T  Output tower data?
         F  Output formatted FF files?
         F  Output coherent turbulence time step file?
         T  Clockwise rotation when looking downwind?
 0 -  NONE  IEC turbulence models scaled to exact specified standard deviation


Turbine/Model Specifications:

        33  Vertical grid-point matrix dimension
        33  Horizontal grid-point matrix dimension
     0.050  Time step [seconds]
   370.000  Analysis time [seconds]
   370.000  Usable output time [seconds]
    87.600  Hub height [m]
   130.000  Grid height [m]
   130.000  Grid width [m]
     0.000  Vertical flow angle [degrees]
     0.000  Horizontal flow angle [degrees]


Meteorological Boundary Conditions:

    SMOOTH  RISO Smooth Terrain spectral model
       N/A  IEC standard
       N/A  IEC turbulence characteristic
       N/A  IEC turbulence type
       N/A  IEC Extreme Turbulence Model (ETM) "c" parameter [m/s]
       IEC  Wind profile type
    87.600  Reference height [m]
     8.000  Reference wind speed [m/s]
       N/A  Jet height [m]
     0.143  Power law exponent
     0.010  Surface roughness length [m]


Non-IEC Meteorological Boundary Conditions:

    45.000  Site latitude [degrees]
     0.050  Gradient Richardson number
     0.340  Friction or shear velocity [m/s]
       N/A  Mixing layer depth [m]
    -0.116  Mean hub u'w' Reynolds stress
       N/A  Mean hub u'v' Reynolds stress
       N/A  Mean hub v'w' Reynolds stress
(    8.000,  0.00    )  u-component coherence parameters
(    6.000,  0.00    )  v-component coherence parameters
(    6.000,  0.00    )  w-component coherence parameters
     0.000  Coherence exponent


You have requested that the following file(s) be generated:

   unsteady_tmp_8.bts (AeroDyn/TurbSim full-field wind file)


Turbulence Simulation Scaling Parameter Summary:

   Turbulence model used                            =  RISO Smooth Terrain
   Gradient Richardson number                       =    0.050
   Monin-Obukhov (M-O) z/L parameter                =    0.067
   Monin-Obukhov (M-O) length scale                 = 1314.000 m
   Mean wind speed at hub height                    =    8.000 m/s

   Wind profile type                                =  Power law on rotor disk, logarithmic elsewhere
   Power law exponent                               =    0.143
   Mean shear across rotor disk                     =    0.015 (m/s)/m
   Assumed rotor diameter                           =  130.000 m
   Surface roughness length                         =    0.010 m

   Number of time steps in the FFT                  =     7728
   Number of time steps output                      =     7725


Mean Flow Angles:

   Vertical   =   0.0 degrees
   Horizontal =   0.0 degrees

Mean Wind Speed Profile:

   Height    Wind Speed   Horizontal Angle  U-comp (X)   V-comp (Y)   W-comp (Z)
     (m)        (m/s)         (degrees)       (m/s)        (m/s)        (m/s)   
   ------    ----------   ----------------  ----------   ----------   ----------
    152.6        8.49            0.00          8.49         0.00         0.00
    148.5        8.63            0.00          8.63         0.00         0.00
    144.5        8.59            0.00          8.59         0.00         0.00
    140.4        8.56            0.00          8.56         0.00         0.00
    136.4        8.52            0.00          8.52         0.00         0.00
    132.3        8.49            0.00          8.49         0.00         0.00
    128.2        8.45            0.00          8.45         0.00         0.00
    124.2        8.41            0.00          8.41         0.00         0.00
    120.1        8.37            0.00          8.37         0.00         0.00
    116.0        8.33            0.00          8.33         0.00         0.00
    112.0        8.29            0.00          8.29         0.00         0.00
    107.9        8.24            0.00          8.24         0.00         0.00
    103.9        8.20            0.00          8.20         0.00         0.00
     99.8        8.15            0.00          8.15         0.00         0.00
     95.7        8.10            0.00          8.10         0.00         0.00
     91.7        8.05            0.00          8.05         0.00         0.00
     87.6        8.00            0.00          8.00         0.00         0.00
     83.5        7.95            0.00          7.95         0.00         0.00
     79.5        7.89            0.00          7.89         0.00         0.00
     75.4        7.83            0.00          7.83         0.00         0.00
     71.4        7.77            0.00          7.77         0.00         0.00
     67.3        7.70            0.00          7.70         0.00         0.00
     63.2        7.64            0.00          7.64         0.00         0.00
     59.2        7.56            0.00          7.56         0.00         0.00
     55.1        7.49            0.00          7.49         0.00         0.00
     51.0        7.41            0.00          7.41         0.00         0.00
     47.0        7.32            0.00          7.32         0.00         0.00
     42.9        7.22            0.00          7.22         0.00         0.00
     38.9        7.12            0.00          7.12         0.00         0.00
     34.8        7.01            0.00          7.01         0.00         0.00
     30.7        6.89            0.00          6.89         0.00         0.00
     26.7        6.75            0.00          6.75         0.00         0.00
     22.6        6.59            0.00          6.59         0.00         0.00
     18.5        6.63            0.00          6.63         0.00         0.00
     14.5        6.41            0.00          6.41         0.00         0.00
     10.4        6.12            0.00          6.12         0.00         0.00
      6.4        5.69            0.00          5.69         0.00         0.00
      2.3        4.79            0.00          4.79         0.00         0.00


Harvested Random Seeds after Generation of the Random Numbers:

    117833646 K1
            0 K2


Scaling statistics from the hub grid point:

   Cross-Component  Scaling Factor
   ---------------  --------------
   u'w'               -0.39246E-01
   u'v'                0.00000E+00
   v'w'                0.00000E+00


Hub-Height Simulated Turbulence Statistical Summary:

   Type of Wind        Min (m/s)   Mean (m/s)    Max (m/s)  Sigma (m/s)       TI (%)
   ----------------    ---------   ----------    ---------  -----------       ------
   Longitudinal (u)         5.31         8.00        10.23        0.886       11.077
   Lateral (v)             -2.04         0.00         1.74        0.539        6.742
   Vertical (w)            -1.61         0.00         1.44        0.497        6.218
   U component              5.31         8.00        10.23        0.886       11.077
   V component             -2.04         0.00         1.74        0.539        6.742
   W component             -1.61         0.00         1.44        0.497        6.218
   Horizontal (U&V)         5.32         8.02        10.23        0.887       11.059
   Total                    5.32         8.03        10.25        0.888       11.048

                       Min Reynolds     Mean Reynolds    Max Reynolds    Correlation
   Product             Stress (m/s)^2   Stress (m/s)^2   Stress (m/s)^2  Coefficient
   ----------------    --------------   --------------   --------------  -----------
   u'w'                     -2.287            -0.116             1.551        -0.262
   u'v'                     -2.121             0.069             2.623         0.145
   v'w'                     -1.767            -0.034             1.689        -0.128


   Friction Velocity (Ustar)  =      0.340 m/s
   Maximum Instantaneous TKE  =      3.756 (m/s)^2
   Maximum Instantaneous CTKE =      1.501 (m/s)^2


Grid Point Variance Summary:

   Y-coord  -65.00  -60.94  -56.88  -52.81  -48.75  -44.69  -40.62  -36.56  -32.50  -28.44  -24.38  -20.31  -16.25  -12.19   -8.12   -4.06    0.00    4.06    8.12   12.19   16.25   20.31   24.38   28.44   32.50   36.56   40.62   44.69   48.75   52.81   56.88   60.94   65.00

   Height   Standard deviation at grid points for the u component:
   152.60    0.813   0.876   0.871   0.877   0.877   0.807   0.851   0.825   0.797   0.783   0.797   0.801   0.800   0.839   0.826   0.860   0.849   0.888   0.898   0.816   0.838   0.858   0.862   0.854   0.863   0.887   0.816   0.801   0.771   0.777   0.703   0.723   0.759
   148.54    0.872   0.900   0.867   0.863   0.888   0.880   0.893   0.928   0.908   0.879   0.838   0.826   0.865   0.849   0.856   0.818   0.851   0.855   0.903   0.872   0.863   0.831   0.852   0.820   0.830   0.831   0.873   0.834   0.817   0.744   0.740   0.731   0.761
   144.48    0.855   0.875   0.896   0.917   0.878   0.929   0.937   0.928   0.934   0.937   0.918   0.866   0.899   0.879   0.867   0.845   0.871   0.888   0.905   0.894   0.870   0.913   0.889   0.878   0.856   0.888   0.874   0.848   0.795   0.744   0.720   0.743   0.752
   140.41    0.853   0.859   0.913   0.935   0.953   0.928   0.917   0.880   0.863   0.921   0.901   0.881   0.890   0.869   0.809   0.868   0.909   0.915   0.904   0.893   0.920   0.949   0.925   0.884   0.873   0.883   0.840   0.835   0.772   0.702   0.701   0.762   0.762
   136.35    0.901   0.909   0.961   0.963   0.986   0.996   0.981   0.919   0.922   0.971   0.952   0.882   0.898   0.881   0.886   0.869   0.866   0.879   0.878   0.904   0.929   0.942   0.923   0.912   0.891   0.880   0.877   0.779   0.786   0.749   0.700   0.774   0.781
   132.29    0.895   0.982   0.956   0.990   0.991   0.992   0.988   0.955   1.007   0.984   0.948   0.908   0.831   0.860   0.885   0.921   0.927   0.892   0.854   0.973   1.010   0.943   0.911   0.875   0.955   0.947   0.887   0.872   0.770   0.749   0.716   0.776   0.773
   128.23    0.901   0.941   0.990   1.043   1.035   1.015   0.957   1.008   1.020   0.934   0.960   0.973   0.908   0.918   0.927   0.903   0.902   0.922   0.888   0.923   0.957   0.958   0.934   0.940   0.973   0.922   0.898   0.823   0.758   0.776   0.797   0.815   0.814
   124.16    0.850   0.935   0.974   1.007   0.970   1.043   0.989   1.005   1.029   0.954   0.973   0.966   0.958   0.938   0.993   0.927   0.937   0.874   0.907   0.890   0.880   0.922   0.959   0.922   0.909   0.888   0.869   0.836   0.795   0.807   0.858   0.831   0.815
   120.10    0.892   0.915   0.941   0.991   0.998   0.978   0.949   0.997   0.970   0.989   0.989   1.000   0.976   0.938   0.962   0.932   0.899   0.867   0.890   0.864   0.896   0.885   0.916   0.877   0.928   0.891   0.906   0.918   0.867   0.850   0.850   0.846   0.788
   116.04    0.933   0.912   0.919   0.959   0.970   0.940   0.932   1.026   1.056   0.984   1.024   0.990   0.984   0.982   0.940   0.907   0.870   0.839   0.860   0.873   0.868   0.852   0.850   0.876   0.944   0.954   0.956   0.934   0.838   0.841   0.840   0.799   0.855
   111.98    0.942   0.961   0.970   0.919   0.994   0.962   0.969   1.030   1.020   0.960   0.970   1.049   0.993   0.936   0.877   0.837   0.796   0.812   0.828   0.864   0.835   0.865   0.828   0.889   0.920   0.945   0.931   0.877   0.874   0.872   0.886   0.855   0.787
   107.91    0.908   0.980   0.995   0.985   1.003   0.962   1.024   1.001   0.983   0.989   0.999   0.987   0.959   0.954   0.869   0.843   0.826   0.802   0.789   0.847   0.855   0.851   0.858   0.923   0.857   0.877   0.870   0.850   0.792   0.803   0.842   0.822   0.810
   103.85    0.924   0.929   0.965   0.980   0.962   1.014   1.032   0.999   1.018   1.008   0.975   0.981   0.948   0.911   0.892   0.883   0.808   0.797   0.821   0.851   0.826   0.826   0.879   0.898   0.884   0.887   0.847   0.824   0.782   0.815   0.852   0.860   0.821
    99.79    0.935   0.897   0.929   0.943   0.950   1.012   1.041   0.956   0.971   0.996   0.961   0.994   0.957   0.902   0.881   0.927   0.856   0.836   0.788   0.832   0.870   0.870   0.867   0.902   0.866   0.852   0.822   0.853   0.870   0.868   0.885   0.881   0.806
    95.73    0.868   0.832   0.902   0.929   0.948   0.949   0.998   0.974   0.987   0.954   0.977   1.012   0.940   0.914   0.916   0.925   0.864   0.834   0.784   0.842   0.833   0.855   0.853   0.848   0.894   0.901   0.909   0.854   0.901   0.907   0.889   0.883   0.825
    91.66    0.857   0.929   0.959   0.921   0.946   0.929   0.988   1.014   0.937   0.980   0.956   0.991   0.940   0.975   0.921   0.914   0.895   0.860   0.856   0.820   0.865   0.900   0.880   0.867   0.867   0.850   0.851   0.882   0.924   0.929   0.904   0.872   0.868
    87.60    0.839   0.844   0.878   0.940   0.928   0.962   1.060   1.030   1.046   0.967   0.985   1.001   0.992   0.973   0.941   0.911   0.886   0.853   0.801   0.875   0.902   0.865   0.875   0.854   0.860   0.859   0.875   0.894   0.871   0.907   0.928   0.937   0.889
    83.54    0.868   0.817   0.865   0.930   0.912   0.914   1.000   1.001   0.996   0.973   0.935   0.988   0.951   0.990   0.962   0.957   0.927   0.878   0.853   0.901   0.895   0.896   0.892   0.864   0.886   0.870   0.856   0.868   0.903   0.870   0.895   0.963   0.924
    79.48    0.830   0.843   0.876   0.921   0.948   0.951   0.968   0.920   0.985   0.999   0.972   0.984   0.955   0.952   0.932   0.893   0.903   0.865   0.794   0.831   0.876   0.870   0.865   0.922   0.880   0.932   0.911   0.942   0.935   0.940   0.904   0.929   0.924
    75.41    0.784   0.840   0.924   0.918   0.959   0.927   0.955   0.870   0.942   0.935   0.977   0.989   0.958   0.912   0.946   0.933   0.902   0.814   0.837   0.850   0.823   0.817   0.851   0.889   0.953   0.931   0.960   0.992   0.931   0.861   0.851   0.887   0.896
    71.35    0.787   0.852   0.891   0.892   0.926   0.913   0.962   0.939   0.941   0.965   0.958   0.942   0.986   0.913   0.893   0.873   0.834   0.842   0.785   0.865   0.851   0.852   0.820   0.888   0.930   0.926   0.921   0.919   0.890   0.864   0.873   0.872   0.822
    67.29    0.808   0.843   0.918   0.912   0.906   0.936   0.931   0.983   0.961   0.982   1.001   0.946   0.945   0.913   0.933   0.925   0.832   0.818   0.849   0.893   0.856   0.832   0.828   0.852   0.911   0.922   0.914   0.867   0.853   0.895   0.918   0.902   0.862
    63.23    0.841   0.901   0.896   0.899   0.908   0.916   0.945   0.993   1.030   0.997   0.981   0.985   0.909   0.905   0.890   0.901   0.865   0.842   0.854   0.896   0.846   0.819   0.862   0.866   0.948   0.906   0.937   0.896   0.896   0.874   0.925   0.864   0.811
    59.16    0.868   0.863   0.910   0.930   0.957   0.923   0.926   1.016   0.978   0.973   0.942   0.918   0.921   0.904   0.896   0.902   0.858   0.859   0.870   0.879   0.873   0.835   0.875   0.888   0.932   0.911   0.863   0.870   0.841   0.831   0.822   0.858   0.795
    55.10    0.838   0.835   0.838   0.908   0.885   0.936   0.954   0.969   0.967   0.910   0.917   0.953   0.963   0.956   0.924   0.923   0.907   0.905   0.928   0.949   0.906   0.829   0.888   0.871   0.873   0.892   0.852   0.839   0.791   0.843   0.804   0.858   0.821
    51.04    0.879   0.865   0.829   0.899   0.916   0.978   0.957   0.965   0.935   0.942   0.976   0.979   0.993   1.019   0.928   0.875   0.879   0.928   0.949   0.945   0.886   0.887   0.902   0.876   0.843   0.911   0.899   0.846   0.819   0.851   0.849   0.856   0.855
    46.98    0.902   0.862   0.865   0.936   0.974   0.974   0.974   0.940   0.971   0.989   1.010   1.026   1.074   1.022   0.966   0.918   0.898   0.964   0.943   0.950   0.876   0.879   0.897   0.855   0.873   0.926   0.871   0.856   0.829   0.848   0.832   0.871   0.859
    42.91    0.924   0.873   0.878   0.899   0.986   1.025   0.916   0.873   0.929   1.005   1.042   1.053   1.053   1.069   0.995   1.010   0.969   0.964   0.982   0.938   0.941   0.896   0.866   0.936   0.896   0.933   0.916   0.830   0.866   0.825   0.844   0.870   0.847
    38.85    0.907   0.852   0.874   0.861   0.934   0.956   0.920   0.911   0.900   1.029   1.074   1.123   1.076   1.097   1.060   1.048   1.055   1.063   0.980   0.926   0.863   0.884   0.903   0.873   0.890   0.911   0.930   0.855   0.861   0.869   0.832   0.826   0.848
    34.79    0.928   0.916   0.832   0.856   0.899   0.885   0.888   0.863   0.901   0.946   1.057   1.123   1.117   1.102   1.081   1.099   1.067   1.032   1.034   0.996   0.900   0.877   0.924   0.918   0.874   0.904   0.897   0.842   0.888   0.898   0.872   0.863   0.768
    30.73    0.898   0.901   0.847   0.770   0.863   0.843   0.854   0.869   0.912   0.947   1.059   1.072   1.072   1.082   1.046   1.079   1.010   1.016   1.033   1.002   0.946   0.933   0.921   0.892   0.858   0.865   0.873   0.865   0.862   0.847   0.876   0.838   0.851
    26.66    0.881   0.834   0.825   0.841   0.864   0.898   0.868   0.919   0.955   0.929   0.941   1.041   1.043   1.022   1.038   1.042   1.012   0.991   1.007   0.965   0.943   0.957   0.951   0.899   0.889   0.898   0.887   0.913   0.883   0.853   0.814   0.792   0.825
    22.60    0.866   0.855   0.870   0.842   0.875   0.835   0.883   0.902   0.975   0.951   0.987   0.990   1.014   1.007   1.020   0.998   0.996   0.997   0.944   0.908   0.903   0.933   0.905   0.886   0.909   0.925   0.846   0.838   0.832   0.822   0.782   0.755   0.779

   Height   Standard deviation at grid points for the v component:
   152.60    0.625   0.647   0.635   0.654   0.639   0.671   0.659   0.669   0.684   0.662   0.638   0.594   0.597   0.593   0.563   0.594   0.555   0.549   0.554   0.610   0.592   0.593   0.641   0.646   0.663   0.672   0.667   0.634   0.647   0.638   0.621   0.654   0.690
   148.54    0.602   0.620   0.628   0.615   0.657   0.669   0.675   0.677   0.653   0.650   0.682   0.637   0.622   0.609   0.623   0.614   0.530   0.539   0.581   0.594   0.609   0.617   0.608   0.645   0.641   0.650   0.639   0.601   0.630   0.615   0.647   0.637   0.652
   144.48    0.601   0.605   0.605   0.616   0.662   0.662   0.642   0.680   0.675   0.675   0.701   0.677   0.670   0.646   0.652   0.617   0.549   0.570   0.589   0.609   0.596   0.592   0.596   0.602   0.628   0.606   0.605   0.577   0.596   0.619   0.612   0.640   0.648
   140.41    0.631   0.650   0.621   0.645   0.653   0.652   0.680   0.674   0.695   0.695   0.698   0.690   0.686   0.656   0.607   0.609   0.587   0.592   0.624   0.630   0.624   0.628   0.626   0.612   0.630   0.642   0.593   0.561   0.582   0.578   0.615   0.613   0.587
   136.35    0.629   0.626   0.607   0.615   0.621   0.631   0.660   0.667   0.681   0.674   0.650   0.660   0.667   0.616   0.580   0.593   0.588   0.631   0.644   0.666   0.647   0.618   0.596   0.584   0.585   0.592   0.582   0.552   0.600   0.592   0.597   0.602   0.567
   132.29    0.618   0.605   0.616   0.625   0.638   0.629   0.641   0.699   0.688   0.664   0.659   0.679   0.677   0.628   0.592   0.583   0.630   0.647   0.622   0.611   0.620   0.590   0.578   0.567   0.565   0.541   0.580   0.565   0.602   0.594   0.590   0.579   0.579
   128.23    0.605   0.635   0.625   0.624   0.650   0.648   0.658   0.691   0.650   0.646   0.669   0.664   0.659   0.627   0.618   0.613   0.618   0.663   0.620   0.591   0.597   0.639   0.594   0.560   0.550   0.531   0.571   0.561   0.570   0.569   0.567   0.560   0.558
   124.16    0.623   0.637   0.636   0.635   0.633   0.637   0.664   0.677   0.651   0.647   0.673   0.685   0.671   0.661   0.619   0.613   0.652   0.639   0.618   0.600   0.602   0.602   0.598   0.539   0.543   0.537   0.573   0.563   0.544   0.561   0.549   0.522   0.555
   120.10    0.652   0.633   0.648   0.653   0.666   0.667   0.701   0.683   0.652   0.637   0.627   0.635   0.610   0.619   0.620   0.617   0.602   0.607   0.608   0.609   0.634   0.600   0.561   0.542   0.575   0.570   0.538   0.551   0.551   0.561   0.542   0.539   0.542
   116.04    0.653   0.641   0.679   0.669   0.666   0.663   0.691   0.679   0.668   0.666   0.647   0.642   0.587   0.614   0.635   0.590   0.590   0.585   0.624   0.631   0.585   0.569   0.599   0.551   0.566   0.561   0.555   0.564   0.556   0.543   0.560   0.567   0.574
   111.98    0.687   0.674   0.664   0.666   0.668   0.677   0.683   0.672   0.665   0.641   0.627   0.636   0.634   0.597   0.616   0.596   0.583   0.572   0.629   0.613   0.573   0.564   0.563   0.583   0.567   0.541   0.520   0.537   0.552   0.558   0.578   0.572   0.563
   107.91    0.684   0.668   0.672   0.664   0.669   0.643   0.669   0.680   0.666   0.623   0.636   0.618   0.609   0.585   0.586   0.555   0.574   0.559   0.584   0.587   0.571   0.601   0.583   0.581   0.578   0.553   0.556   0.553   0.562   0.574   0.578   0.573   0.575
   103.85    0.662   0.650   0.669   0.659   0.630   0.647   0.664   0.677   0.658   0.637   0.630   0.614   0.584   0.569   0.582   0.565   0.558   0.580   0.582   0.599   0.620   0.587   0.609   0.578   0.562   0.573   0.586   0.548   0.565   0.594   0.596   0.601   0.567
    99.79    0.691   0.663   0.648   0.626   0.631   0.645   0.653   0.657   0.646   0.634   0.656   0.594   0.585   0.569   0.562   0.560   0.580   0.586   0.590   0.571   0.592   0.611   0.584   0.556   0.586   0.567   0.567   0.537   0.580   0.585   0.597   0.582   0.542
    95.73    0.691   0.675   0.657   0.626   0.632   0.648   0.642   0.625   0.651   0.651   0.633   0.632   0.616   0.594   0.588   0.559   0.594   0.602   0.555   0.570   0.571   0.569   0.575   0.597   0.581   0.555   0.570   0.569   0.588   0.599   0.559   0.533   0.542
    91.66    0.682   0.675   0.642   0.622   0.596   0.623   0.610   0.627   0.630   0.612   0.611   0.636   0.603   0.554   0.558   0.536   0.543   0.562   0.551   0.569   0.559   0.572   0.594   0.586   0.556   0.545   0.557   0.553   0.573   0.566   0.556   0.545   0.563
    87.60    0.688   0.657   0.656   0.630   0.624   0.619   0.588   0.631   0.634   0.611   0.589   0.606   0.573   0.558   0.553   0.544   0.539   0.547   0.544   0.539   0.573   0.555   0.571   0.587   0.557   0.577   0.591   0.576   0.567   0.574   0.571   0.554   0.568
    83.54    0.652   0.614   0.637   0.639   0.629   0.622   0.652   0.628   0.632   0.610   0.597   0.596   0.578   0.548   0.551   0.570   0.533   0.547   0.551   0.544   0.529   0.552   0.567   0.582   0.587   0.589   0.576   0.569   0.577   0.575   0.596   0.566   0.572
    79.48    0.634   0.640   0.637   0.655   0.643   0.628   0.629   0.633   0.620   0.621   0.585   0.577   0.570   0.549   0.551   0.574   0.578   0.589   0.565   0.548   0.548   0.542   0.571   0.581   0.591   0.552   0.580   0.528   0.556   0.551   0.570   0.574   0.595
    75.41    0.611   0.627   0.654   0.649   0.652   0.606   0.632   0.617   0.603   0.610   0.596   0.585   0.594   0.564   0.556   0.573   0.590   0.599   0.591   0.609   0.573   0.560   0.581   0.593   0.590   0.569   0.554   0.549   0.547   0.539   0.574   0.588   0.593
    71.35    0.648   0.648   0.650   0.644   0.642   0.623   0.606   0.605   0.592   0.602   0.601   0.572   0.582   0.584   0.582   0.592   0.599   0.622   0.662   0.653   0.577   0.596   0.617   0.606   0.611   0.602   0.577   0.557   0.583   0.553   0.605   0.571   0.598
    67.29    0.654   0.651   0.608   0.591   0.603   0.588   0.582   0.601   0.612   0.630   0.623   0.617   0.606   0.599   0.602   0.610   0.616   0.632   0.622   0.614   0.608   0.615   0.613   0.620   0.603   0.591   0.577   0.581   0.562   0.571   0.590   0.600   0.606
    63.23    0.665   0.628   0.610   0.595   0.604   0.583   0.577   0.587   0.589   0.570   0.601   0.621   0.614   0.618   0.610   0.613   0.622   0.610   0.610   0.613   0.629   0.613   0.611   0.606   0.591   0.595   0.605   0.560   0.577   0.555   0.580   0.589   0.656
    59.16    0.664   0.649   0.630   0.622   0.624   0.608   0.602   0.605   0.575   0.598   0.587   0.601   0.629   0.643   0.643   0.617   0.608   0.608   0.617   0.629   0.630   0.610   0.582   0.604   0.591   0.589   0.592   0.582   0.597   0.578   0.570   0.582   0.601
    55.10    0.686   0.693   0.686   0.655   0.632   0.595   0.611   0.587   0.611   0.601   0.628   0.630   0.648   0.643   0.616   0.618   0.618   0.622   0.627   0.603   0.593   0.629   0.626   0.623   0.590   0.587   0.557   0.575   0.578   0.583   0.589   0.610   0.630
    51.04    0.669   0.688   0.679   0.663   0.631   0.612   0.650   0.622   0.628   0.630   0.633   0.635   0.640   0.601   0.613   0.604   0.641   0.612   0.605   0.588   0.626   0.646   0.665   0.635   0.599   0.565   0.567   0.551   0.559   0.558   0.602   0.625   0.631
    46.98    0.686   0.665   0.655   0.647   0.659   0.664   0.651   0.638   0.597   0.616   0.611   0.627   0.637   0.628   0.624   0.631   0.636   0.635   0.589   0.618   0.624   0.651   0.662   0.668   0.661   0.635   0.597   0.563   0.553   0.548   0.563   0.617   0.637
    42.91    0.648   0.668   0.674   0.681   0.675   0.650   0.618   0.646   0.606   0.613   0.633   0.644   0.660   0.638   0.639   0.623   0.647   0.639   0.597   0.633   0.668   0.664   0.666   0.651   0.636   0.632   0.615   0.608   0.607   0.562   0.574   0.601   0.614
    38.85    0.676   0.675   0.686   0.689   0.657   0.615   0.607   0.637   0.632   0.623   0.610   0.643   0.655   0.647   0.602   0.620   0.609   0.632   0.639   0.662   0.652   0.659   0.665   0.647   0.591   0.596   0.605   0.608   0.592   0.617   0.614   0.598   0.631
    34.79    0.674   0.666   0.637   0.661   0.674   0.631   0.645   0.642   0.654   0.624   0.603   0.619   0.671   0.662   0.619   0.630   0.649   0.643   0.678   0.665   0.671   0.671   0.624   0.623   0.615   0.608   0.596   0.592   0.601   0.610   0.618   0.641   0.655
    30.73    0.654   0.653   0.628   0.663   0.640   0.659   0.653   0.662   0.666   0.631   0.639   0.618   0.625   0.670   0.626   0.632   0.633   0.667   0.682   0.672   0.676   0.687   0.670   0.675   0.664   0.627   0.600   0.566   0.602   0.610   0.623   0.656   0.681
    26.66    0.661   0.661   0.666   0.639   0.649   0.644   0.637   0.665   0.655   0.655   0.652   0.631   0.650   0.628   0.653   0.639   0.633   0.666   0.705   0.680   0.709   0.702   0.675   0.670   0.624   0.616   0.611   0.602   0.595   0.629   0.642   0.653   0.683
    22.60    0.669   0.662   0.684   0.651   0.662   0.664   0.655   0.665   0.663   0.679   0.655   0.635   0.607   0.608   0.634   0.630   0.637   0.640   0.679   0.675   0.687   0.693   0.667   0.678   0.655   0.619   0.588   0.620   0.608   0.634   0.663   0.656   0.650

   Height   Standard deviation at grid points for the w component:
   152.60    0.564   0.544   0.556   0.547   0.524   0.534   0.538   0.500   0.519   0.503   0.519   0.508   0.495   0.504   0.504   0.507   0.506   0.485   0.479   0.467   0.481   0.506   0.515   0.500   0.521   0.538   0.545   0.521   0.502   0.490   0.504   0.489   0.458
   148.54    0.565   0.567   0.554   0.567   0.563   0.543   0.528   0.513   0.497   0.517   0.508   0.504   0.496   0.503   0.512   0.513   0.499   0.489   0.485   0.456   0.467   0.491   0.503   0.494   0.501   0.485   0.516   0.507   0.484   0.505   0.496   0.479   0.470
   144.48    0.586   0.588   0.578   0.568   0.554   0.508   0.494   0.505   0.508   0.529   0.533   0.512   0.508   0.519   0.519   0.497   0.491   0.483   0.473   0.463   0.473   0.466   0.466   0.473   0.472   0.483   0.502   0.473   0.495   0.504   0.503   0.469   0.463
   140.41    0.587   0.579   0.570   0.554   0.526   0.512   0.490   0.490   0.492   0.515   0.528   0.533   0.517   0.515   0.511   0.517   0.506   0.490   0.483   0.492   0.494   0.472   0.471   0.450   0.439   0.477   0.479   0.474   0.482   0.504   0.492   0.474   0.473
   136.35    0.582   0.549   0.534   0.535   0.512   0.500   0.490   0.503   0.504   0.540   0.544   0.525   0.502   0.493   0.529   0.513   0.484   0.514   0.520   0.510   0.503   0.481   0.483   0.480   0.472   0.484   0.475   0.471   0.492   0.499   0.503   0.512   0.488
   132.29    0.552   0.544   0.517   0.525   0.504   0.505   0.492   0.473   0.504   0.524   0.533   0.509   0.490   0.519   0.529   0.532   0.514   0.530   0.513   0.503   0.530   0.514   0.507   0.476   0.478   0.471   0.485   0.480   0.486   0.487   0.501   0.503   0.481
   128.23    0.529   0.528   0.517   0.521   0.495   0.504   0.484   0.480   0.500   0.494   0.509   0.505   0.480   0.516   0.537   0.542   0.535   0.535   0.528   0.507   0.515   0.516   0.518   0.476   0.480   0.486   0.491   0.458   0.498   0.473   0.496   0.514   0.511
   124.16    0.530   0.530   0.508   0.525   0.522   0.516   0.477   0.454   0.456   0.479   0.479   0.488   0.510   0.520   0.522   0.535   0.533   0.551   0.537   0.506   0.513   0.525   0.501   0.499   0.504   0.512   0.497   0.508   0.494   0.525   0.500   0.507   0.514
   120.10    0.541   0.523   0.529   0.507   0.524   0.490   0.474   0.451   0.456   0.480   0.479   0.499   0.487   0.487   0.534   0.524   0.526   0.527   0.526   0.511   0.499   0.509   0.513   0.511   0.522   0.539   0.551   0.530   0.508   0.507   0.481   0.513   0.517
   116.04    0.532   0.519   0.523   0.499   0.507   0.511   0.475   0.453   0.465   0.479   0.490   0.487   0.472   0.485   0.505   0.517   0.524   0.527   0.522   0.532   0.530   0.528   0.526   0.533   0.555   0.546   0.529   0.503   0.507   0.496   0.491   0.505   0.512
   111.98    0.550   0.544   0.531   0.489   0.496   0.494   0.495   0.465   0.480   0.470   0.476   0.484   0.486   0.500   0.492   0.493   0.501   0.498   0.501   0.521   0.528   0.528   0.510   0.518   0.537   0.522   0.508   0.506   0.504   0.480   0.499   0.492   0.503
   107.91    0.551   0.538   0.505   0.490   0.510   0.491   0.483   0.466   0.476   0.473   0.473   0.470   0.479   0.488   0.466   0.490   0.498   0.485   0.482   0.512   0.518   0.506   0.512   0.517   0.534   0.534   0.508   0.520   0.516   0.492   0.502   0.507   0.516
   103.85    0.527   0.521   0.504   0.485   0.482   0.490   0.481   0.453   0.475   0.477   0.443   0.459   0.468   0.498   0.485   0.483   0.499   0.490   0.491   0.483   0.497   0.489   0.511   0.514   0.525   0.514   0.512   0.505   0.514   0.499   0.513   0.529   0.532
    99.79    0.541   0.527   0.506   0.499   0.492   0.487   0.486   0.454   0.467   0.454   0.447   0.463   0.478   0.471   0.470   0.476   0.492   0.503   0.516   0.484   0.490   0.503   0.501   0.518   0.535   0.528   0.516   0.531   0.508   0.507   0.514   0.520   0.509
    95.73    0.535   0.526   0.525   0.499   0.488   0.477   0.467   0.472   0.474   0.492   0.474   0.497   0.487   0.483   0.480   0.488   0.490   0.489   0.510   0.501   0.500   0.511   0.498   0.524   0.528   0.516   0.532   0.541   0.528   0.524   0.506   0.514   0.490
    91.66    0.530   0.516   0.514   0.501   0.479   0.468   0.481   0.474   0.472   0.497   0.488   0.507   0.511   0.485   0.482   0.483   0.506   0.498   0.499   0.494   0.470   0.500   0.513   0.526   0.536   0.523   0.537   0.540   0.509   0.514   0.503   0.493   0.484
    87.60    0.503   0.511   0.501   0.505   0.483   0.486   0.496   0.472   0.494   0.474   0.477   0.502   0.531   0.493   0.487   0.482   0.497   0.509   0.504   0.499   0.496   0.495   0.494   0.500   0.530   0.516   0.536   0.507   0.521   0.517   0.515   0.481   0.486
    83.54    0.509   0.484   0.504   0.516   0.493   0.478   0.485   0.494   0.485   0.474   0.464   0.498   0.518   0.507   0.486   0.501   0.507   0.501   0.498   0.523   0.489   0.480   0.487   0.503   0.509   0.535   0.546   0.538   0.512   0.516   0.495   0.498   0.474
    79.48    0.505   0.478   0.488   0.481   0.484   0.468   0.482   0.467   0.503   0.497   0.485   0.506   0.529   0.505   0.489   0.503   0.534   0.520   0.508   0.504   0.508   0.487   0.517   0.522   0.502   0.521   0.536   0.521   0.518   0.516   0.502   0.491   0.506
    75.41    0.506   0.512   0.497   0.476   0.480   0.483   0.461   0.471   0.476   0.495   0.518   0.525   0.534   0.507   0.507   0.520   0.523   0.525   0.525   0.513   0.518   0.505   0.526   0.515   0.526   0.526   0.508   0.522   0.499   0.521   0.535   0.525   0.510
    71.35    0.512   0.510   0.486   0.453   0.467   0.468   0.472   0.467   0.467   0.498   0.503   0.509   0.532   0.522   0.523   0.523   0.529   0.524   0.527   0.520   0.525   0.531   0.537   0.517   0.533   0.523   0.515   0.516   0.516   0.536   0.534   0.510   0.487
    67.29    0.517   0.501   0.494   0.479   0.467   0.470   0.499   0.487   0.487   0.500   0.508   0.528   0.549   0.532   0.522   0.517   0.518   0.493   0.524   0.537   0.547   0.541   0.537   0.542   0.531   0.525   0.529   0.521   0.521   0.534   0.526   0.509   0.487
    63.23    0.493   0.490   0.505   0.494   0.473   0.487   0.517   0.500   0.510   0.509   0.514   0.512   0.529   0.546   0.522   0.525   0.482   0.505   0.513   0.542   0.536   0.546   0.546   0.535   0.544   0.522   0.525   0.516   0.517   0.534   0.545   0.522   0.488
    59.16    0.483   0.485   0.491   0.479   0.472   0.495   0.507   0.485   0.512   0.502   0.511   0.511   0.521   0.526   0.508   0.512   0.509   0.512   0.513   0.507   0.536   0.552   0.520   0.530   0.531   0.526   0.517   0.519   0.531   0.534   0.530   0.506   0.500
    55.10    0.489   0.475   0.492   0.492   0.494   0.508   0.512   0.505   0.506   0.524   0.533   0.511   0.524   0.525   0.526   0.525   0.524   0.516   0.533   0.516   0.506   0.505   0.490   0.525   0.545   0.530   0.520   0.505   0.523   0.530   0.533   0.521   0.509
    51.04    0.491   0.469   0.493   0.488   0.486   0.511   0.494   0.502   0.491   0.509   0.534   0.536   0.527   0.514   0.535   0.521   0.508   0.518   0.527   0.516   0.513   0.501   0.505   0.524   0.515   0.490   0.495   0.508   0.521   0.541   0.553   0.534   0.533
    46.98    0.486   0.477   0.490   0.523   0.505   0.492   0.475   0.495   0.497   0.523   0.531   0.525   0.530   0.512   0.518   0.509   0.532   0.513   0.528   0.521   0.519   0.479   0.495   0.516   0.508   0.497   0.494   0.491   0.512   0.527   0.560   0.544   0.517
    42.91    0.507   0.506   0.495   0.502   0.498   0.502   0.497   0.491   0.495   0.500   0.535   0.539   0.520   0.532   0.523   0.526   0.538   0.506   0.535   0.528   0.526   0.493   0.478   0.506   0.496   0.488   0.489   0.479   0.504   0.507   0.544   0.531   0.523
    38.85    0.512   0.520   0.509   0.504   0.497   0.490   0.491   0.511   0.505   0.511   0.517   0.524   0.522   0.524   0.525   0.533   0.503   0.518   0.521   0.513   0.515   0.490   0.487   0.497   0.499   0.495   0.497   0.498   0.481   0.490   0.526   0.521   0.510
    34.79    0.535   0.547   0.523   0.509   0.517   0.501   0.508   0.507   0.487   0.519   0.493   0.491   0.515   0.527   0.531   0.540   0.498   0.527   0.526   0.525   0.521   0.493   0.493   0.472   0.499   0.502   0.505   0.496   0.509   0.519   0.520   0.497   0.507
    30.73    0.561   0.555   0.535   0.522   0.518   0.504   0.514   0.513   0.490   0.498   0.521   0.523   0.511   0.525   0.537   0.536   0.513   0.516   0.512   0.519   0.508   0.502   0.490   0.503   0.485   0.510   0.535   0.495   0.500   0.504   0.517   0.514   0.515
    26.66    0.531   0.542   0.531   0.525   0.516   0.516   0.502   0.480   0.488   0.504   0.499   0.495   0.520   0.525   0.518   0.515   0.519   0.537   0.539   0.523   0.501   0.498   0.497   0.493   0.499   0.518   0.532   0.521   0.504   0.508   0.501   0.510   0.523
    22.60    0.515   0.524   0.519   0.505   0.516   0.487   0.497   0.506   0.492   0.510   0.507   0.528   0.530   0.516   0.522   0.519   0.543   0.535   0.534   0.520   0.498   0.496   0.476   0.489   0.495   0.511   0.518   0.506   0.510   0.512   0.503   0.511   0.519

   Mean standard deviation across all grid points:
      u component:    0.904 m/s
      v component:    0.615 m/s
      w component:    0.507 m/s


U-component (X) statistics from the hub grid point:

   Mean =   8.0000 m/s
   TI   =  11.0772 %

Nyquist frequency of turbulent wind field =        10.000 Hz


Processing complete.  377.58 CPU seconds used.
