
This summary file was generated by TurbSim (v1.06.00, 21-Sep-2012) on 24-Sep-2020 at 16:10:51.


Runtime Options:

  65432154  Random seed #1
    RANLUX  Type of random number generator
         F  Output binary HH turbulence parameters?
         F  Output formatted turbulence parameters?
         F  Output AeroDyn HH files?
         T  Output AeroDyn FF files?
         F  Output BLADED FF files?
         T  Output tower data?
         F  Output formatted FF files?
         F  Output coherent turbulence time step file?
         T  Clockwise rotation when looking downwind?
 0 -  NONE  IEC turbulence models scaled to exact specified standard deviation


Turbine/Model Specifications:

        33  Vertical grid-point matrix dimension
        33  Horizontal grid-point matrix dimension
     0.050  Time step [seconds]
  3610.000  Analysis time [seconds]
  3610.000  Usable output time [seconds]
    87.600  Hub height [m]
   130.000  Grid height [m]
   130.000  Grid width [m]
     0.000  Vertical flow angle [degrees]
     0.000  Horizontal flow angle [degrees]


Meteorological Boundary Conditions:

    SMOOTH  RISO Smooth Terrain spectral model
       N/A  IEC standard
       N/A  IEC turbulence characteristic
       N/A  IEC turbulence type
       N/A  IEC Extreme Turbulence Model (ETM) "c" parameter [m/s]
       IEC  Wind profile type
    87.600  Reference height [m]
    14.000  Reference wind speed [m/s]
       N/A  Jet height [m]
     0.143  Power law exponent
     0.010  Surface roughness length [m]


Non-IEC Meteorological Boundary Conditions:

    45.000  Site latitude [degrees]
     0.050  Gradient Richardson number
     0.595  Friction or shear velocity [m/s]
       N/A  Mixing layer depth [m]
    -0.354  Mean hub u'w' Reynolds stress
       N/A  Mean hub u'v' Reynolds stress
       N/A  Mean hub v'w' Reynolds stress
(   14.000,  0.00    )  u-component coherence parameters
(   10.500,  0.00    )  v-component coherence parameters
(   10.500,  0.00    )  w-component coherence parameters
     0.000  Coherence exponent


You have requested that the following file(s) be generated:

   unsteady_tmp_14.bts (AeroDyn/TurbSim full-field wind file)


Turbulence Simulation Scaling Parameter Summary:

   Turbulence model used                            =  RISO Smooth Terrain
   Gradient Richardson number                       =    0.050
   Monin-Obukhov (M-O) z/L parameter                =    0.067
   Monin-Obukhov (M-O) length scale                 = 1314.000 m
   Mean wind speed at hub height                    =   14.000 m/s

   Wind profile type                                =  Power law on rotor disk, logarithmic elsewhere
   Power law exponent                               =    0.143
   Mean shear across rotor disk                     =    0.026 (m/s)/m
   Assumed rotor diameter                           =  130.000 m
   Surface roughness length                         =    0.010 m

   Number of time steps in the FFT                  =    72576
   Number of time steps output                      =    72386


Mean Flow Angles:

   Vertical   =   0.0 degrees
   Horizontal =   0.0 degrees

Mean Wind Speed Profile:

   Height    Wind Speed   Horizontal Angle  U-comp (X)   V-comp (Y)   W-comp (Z)
     (m)        (m/s)         (degrees)       (m/s)        (m/s)        (m/s)   
   ------    ----------   ----------------  ----------   ----------   ----------
    152.6       14.86            0.00         14.86         0.00         0.00
    148.5       15.10            0.00         15.10         0.00         0.00
    144.5       15.04            0.00         15.04         0.00         0.00
    140.4       14.98            0.00         14.98         0.00         0.00
    136.4       14.91            0.00         14.91         0.00         0.00
    132.3       14.85            0.00         14.85         0.00         0.00
    128.2       14.78            0.00         14.78         0.00         0.00
    124.2       14.72            0.00         14.72         0.00         0.00
    120.1       14.65            0.00         14.65         0.00         0.00
    116.0       14.57            0.00         14.57         0.00         0.00
    112.0       14.50            0.00         14.50         0.00         0.00
    107.9       14.42            0.00         14.42         0.00         0.00
    103.9       14.34            0.00         14.34         0.00         0.00
     99.8       14.26            0.00         14.26         0.00         0.00
     95.7       14.18            0.00         14.18         0.00         0.00
     91.7       14.09            0.00         14.09         0.00         0.00
     87.6       14.00            0.00         14.00         0.00         0.00
     83.5       13.91            0.00         13.91         0.00         0.00
     79.5       13.81            0.00         13.81         0.00         0.00
     75.4       13.70            0.00         13.70         0.00         0.00
     71.4       13.60            0.00         13.60         0.00         0.00
     67.3       13.48            0.00         13.48         0.00         0.00
     63.2       13.36            0.00         13.36         0.00         0.00
     59.2       13.24            0.00         13.24         0.00         0.00
     55.1       13.10            0.00         13.10         0.00         0.00
     51.0       12.96            0.00         12.96         0.00         0.00
     47.0       12.81            0.00         12.81         0.00         0.00
     42.9       12.64            0.00         12.64         0.00         0.00
     38.9       12.46            0.00         12.46         0.00         0.00
     34.8       12.27            0.00         12.27         0.00         0.00
     30.7       12.05            0.00         12.05         0.00         0.00
     26.7       11.81            0.00         11.81         0.00         0.00
     22.6       11.53            0.00         11.53         0.00         0.00
     18.5       11.60            0.00         11.60         0.00         0.00
     14.5       11.22            0.00         11.22         0.00         0.00
     10.4       10.72            0.00         10.72         0.00         0.00
      6.4        9.95            0.00          9.95         0.00         0.00
      2.3        8.38            0.00          8.38         0.00         0.00


Harvested Random Seeds after Generation of the Random Numbers:

    106611632 K1
            1 K2


Scaling statistics from the hub grid point:

   Cross-Component  Scaling Factor
   ---------------  --------------
   u'w'               -0.11807E+00
   u'v'                0.00000E+00
   v'w'                0.00000E+00


Hub-Height Simulated Turbulence Statistical Summary:

   Type of Wind        Min (m/s)   Mean (m/s)    Max (m/s)  Sigma (m/s)       TI (%)
   ----------------    ---------   ----------    ---------  -----------       ------
   Longitudinal (u)         8.12        14.00        19.31        1.540       10.997
   Lateral (v)             -4.87         0.00         4.36        1.188        8.488
   Vertical (w)            -4.06         0.00         3.70        0.944        6.745
   U component              8.12        14.00        19.31        1.540       10.997
   V component             -4.87         0.00         4.36        1.188        8.488
   W component             -4.06         0.00         3.70        0.944        6.745
   Horizontal (U&V)         8.15        14.05        19.35        1.538       10.949
   Total                    8.17        14.08        19.36        1.534       10.893

                       Min Reynolds     Mean Reynolds    Max Reynolds    Correlation
   Product             Stress (m/s)^2   Stress (m/s)^2   Stress (m/s)^2  Coefficient
   ----------------    --------------   --------------   --------------  -----------
   u'w'                    -13.709            -0.354             8.470        -0.244
   u'v'                    -12.540            -0.058            12.415        -0.032
   v'w'                     -9.833             0.015             9.698         0.014


   Friction Velocity (Ustar)  =      0.595 m/s
   Maximum Instantaneous TKE  =     17.691 (m/s)^2
   Maximum Instantaneous CTKE =      7.720 (m/s)^2


Grid Point Variance Summary:

   Y-coord  -65.00  -60.94  -56.88  -52.81  -48.75  -44.69  -40.62  -36.56  -32.50  -28.44  -24.38  -20.31  -16.25  -12.19   -8.12   -4.06    0.00    4.06    8.12   12.19   16.25   20.31   24.38   28.44   32.50   36.56   40.62   44.69   48.75   52.81   56.88   60.94   65.00

   Height   Standard deviation at grid points for the u component:
   152.60    1.565   1.561   1.596   1.586   1.606   1.655   1.638   1.631   1.647   1.633   1.612   1.589   1.618   1.568   1.565   1.567   1.567   1.597   1.619   1.599   1.581   1.559   1.547   1.548   1.530   1.532   1.532   1.536   1.502   1.493   1.485   1.480   1.477
   148.54    1.564   1.574   1.611   1.583   1.635   1.680   1.661   1.661   1.652   1.635   1.660   1.646   1.642   1.592   1.601   1.569   1.586   1.588   1.623   1.597   1.596   1.591   1.582   1.539   1.538   1.541   1.520   1.523   1.500   1.473   1.464   1.461   1.489
   144.48    1.556   1.590   1.594   1.574   1.624   1.669   1.667   1.684   1.671   1.670   1.670   1.677   1.615   1.634   1.618   1.606   1.584   1.595   1.595   1.612   1.606   1.631   1.591   1.555   1.519   1.526   1.551   1.520   1.497   1.493   1.481   1.496   1.482
   140.41    1.569   1.611   1.613   1.579   1.622   1.677   1.693   1.681   1.695   1.669   1.667   1.648   1.642   1.628   1.636   1.605   1.606   1.596   1.591   1.594   1.608   1.592   1.566   1.553   1.538   1.557   1.523   1.529   1.512   1.502   1.529   1.543   1.489
   136.35    1.567   1.587   1.608   1.599   1.639   1.657   1.678   1.705   1.692   1.659   1.646   1.661   1.658   1.637   1.630   1.593   1.595   1.601   1.603   1.613   1.612   1.597   1.558   1.542   1.536   1.561   1.519   1.521   1.530   1.506   1.510   1.534   1.532
   132.29    1.572   1.574   1.612   1.603   1.644   1.674   1.684   1.694   1.682   1.648   1.666   1.642   1.653   1.629   1.625   1.593   1.586   1.597   1.609   1.595   1.584   1.575   1.539   1.536   1.549   1.548   1.506   1.513   1.513   1.500   1.503   1.519   1.533
   128.23    1.597   1.589   1.600   1.622   1.659   1.692   1.706   1.676   1.667   1.646   1.650   1.642   1.647   1.632   1.611   1.581   1.583   1.593   1.610   1.621   1.606   1.575   1.557   1.530   1.534   1.520   1.522   1.503   1.505   1.504   1.494   1.514   1.514
   124.16    1.595   1.614   1.636   1.634   1.661   1.680   1.666   1.639   1.635   1.645   1.650   1.659   1.657   1.641   1.621   1.584   1.556   1.568   1.564   1.583   1.605   1.591   1.572   1.554   1.561   1.524   1.516   1.472   1.495   1.485   1.497   1.534   1.532
   120.10    1.601   1.601   1.615   1.636   1.630   1.637   1.641   1.634   1.624   1.625   1.618   1.656   1.630   1.623   1.591   1.568   1.580   1.562   1.590   1.569   1.596   1.566   1.557   1.547   1.547   1.523   1.499   1.474   1.493   1.515   1.506   1.531   1.567
   116.04    1.573   1.601   1.606   1.630   1.635   1.629   1.639   1.615   1.627   1.616   1.608   1.599   1.627   1.617   1.600   1.563   1.563   1.561   1.567   1.580   1.578   1.569   1.546   1.540   1.524   1.541   1.508   1.503   1.518   1.499   1.514   1.504   1.567
   111.98    1.563   1.583   1.591   1.596   1.604   1.612   1.589   1.612   1.604   1.590   1.586   1.589   1.618   1.618   1.593   1.578   1.571   1.568   1.589   1.609   1.612   1.593   1.537   1.527   1.534   1.532   1.523   1.521   1.516   1.529   1.536   1.538   1.576
   107.91    1.549   1.564   1.598   1.589   1.572   1.581   1.572   1.584   1.603   1.570   1.561   1.577   1.591   1.617   1.606   1.568   1.572   1.559   1.596   1.617   1.615   1.599   1.552   1.544   1.526   1.540   1.517   1.533   1.558   1.552   1.542   1.541   1.561
   103.85    1.589   1.567   1.595   1.567   1.606   1.576   1.579   1.563   1.550   1.569   1.548   1.572   1.569   1.596   1.589   1.575   1.589   1.566   1.591   1.625   1.614   1.615   1.571   1.571   1.533   1.552   1.561   1.548   1.545   1.557   1.536   1.541   1.570
    99.79    1.581   1.581   1.578   1.595   1.595   1.601   1.582   1.547   1.529   1.535   1.528   1.570   1.575   1.578   1.564   1.542   1.560   1.532   1.587   1.598   1.593   1.584   1.588   1.553   1.542   1.528   1.584   1.569   1.530   1.528   1.529   1.549   1.566
    95.73    1.565   1.562   1.581   1.578   1.603   1.582   1.589   1.564   1.542   1.548   1.546   1.568   1.578   1.574   1.558   1.551   1.543   1.554   1.553   1.587   1.581   1.563   1.563   1.574   1.546   1.543   1.539   1.547   1.555   1.566   1.563   1.567   1.596
    91.66    1.550   1.549   1.562   1.579   1.590   1.580   1.578   1.574   1.539   1.548   1.529   1.569   1.599   1.579   1.568   1.562   1.526   1.541   1.533   1.569   1.568   1.562   1.569   1.588   1.567   1.571   1.552   1.540   1.554   1.549   1.579   1.594   1.614
    87.60    1.573   1.562   1.577   1.586   1.579   1.588   1.578   1.572   1.544   1.569   1.561   1.596   1.591   1.577   1.546   1.509   1.540   1.557   1.544   1.568   1.573   1.577   1.575   1.563   1.568   1.561   1.546   1.579   1.544   1.555   1.560   1.559   1.595
    83.54    1.587   1.554   1.577   1.600   1.572   1.582   1.556   1.555   1.530   1.534   1.552   1.561   1.556   1.567   1.571   1.553   1.572   1.567   1.572   1.562   1.588   1.558   1.556   1.570   1.563   1.560   1.542   1.542   1.538   1.524   1.542   1.562   1.583
    79.48    1.594   1.555   1.563   1.565   1.531   1.537   1.527   1.504   1.526   1.562   1.563   1.547   1.549   1.558   1.581   1.581   1.615   1.592   1.589   1.576   1.573   1.579   1.582   1.596   1.579   1.547   1.519   1.514   1.555   1.555   1.565   1.554   1.561
    75.41    1.590   1.562   1.570   1.556   1.545   1.508   1.519   1.522   1.516   1.555   1.559   1.580   1.549   1.553   1.582   1.593   1.571   1.572   1.573   1.591   1.569   1.560   1.572   1.564   1.529   1.528   1.528   1.523   1.562   1.547   1.530   1.562   1.598
    71.35    1.566   1.578   1.580   1.536   1.512   1.511   1.530   1.519   1.544   1.544   1.557   1.576   1.552   1.573   1.590   1.592   1.593   1.567   1.556   1.586   1.596   1.594   1.572   1.555   1.536   1.521   1.517   1.533   1.549   1.536   1.549   1.568   1.591
    67.29    1.565   1.574   1.565   1.558   1.553   1.552   1.526   1.561   1.524   1.552   1.551   1.546   1.551   1.553   1.555   1.586   1.579   1.581   1.590   1.576   1.607   1.572   1.545   1.551   1.536   1.548   1.541   1.538   1.576   1.551   1.538   1.551   1.598
    63.23    1.553   1.547   1.561   1.597   1.574   1.554   1.592   1.599   1.568   1.548   1.556   1.554   1.545   1.572   1.576   1.590   1.582   1.614   1.595   1.600   1.582   1.572   1.568   1.576   1.534   1.527   1.521   1.533   1.557   1.549   1.542   1.549   1.576
    59.16    1.557   1.572   1.566   1.603   1.575   1.563   1.590   1.581   1.580   1.568   1.585   1.582   1.554   1.560   1.555   1.559   1.592   1.623   1.600   1.578   1.584   1.568   1.539   1.568   1.553   1.559   1.538   1.537   1.524   1.543   1.530   1.514   1.545
    55.10    1.574   1.573   1.577   1.562   1.561   1.573   1.589   1.605   1.561   1.562   1.573   1.588   1.566   1.553   1.557   1.589   1.565   1.582   1.586   1.578   1.589   1.566   1.555   1.562   1.545   1.570   1.538   1.545   1.542   1.539   1.525   1.487   1.502
    51.04    1.603   1.600   1.580   1.565   1.551   1.585   1.605   1.571   1.546   1.544   1.545   1.569   1.570   1.579   1.587   1.596   1.573   1.570   1.564   1.549   1.588   1.550   1.569   1.555   1.559   1.546   1.563   1.560   1.580   1.541   1.513   1.512   1.513
    46.98    1.604   1.584   1.567   1.551   1.561   1.582   1.594   1.589   1.542   1.523   1.532   1.579   1.582   1.611   1.589   1.601   1.558   1.572   1.571   1.560   1.543   1.528   1.537   1.554   1.550   1.542   1.579   1.578   1.559   1.554   1.541   1.515   1.493
    42.91    1.609   1.571   1.568   1.557   1.589   1.548   1.559   1.545   1.525   1.540   1.563   1.568   1.608   1.574   1.585   1.587   1.567   1.539   1.550   1.545   1.551   1.544   1.545   1.543   1.554   1.564   1.584   1.591   1.546   1.539   1.537   1.539   1.528
    38.85    1.548   1.550   1.512   1.546   1.523   1.545   1.544   1.549   1.513   1.553   1.596   1.586   1.571   1.586   1.586   1.561   1.542   1.570   1.527   1.530   1.558   1.548   1.533   1.554   1.568   1.566   1.567   1.583   1.579   1.582   1.561   1.534   1.540
    34.79    1.543   1.534   1.534   1.531   1.498   1.507   1.521   1.527   1.532   1.553   1.560   1.615   1.595   1.562   1.586   1.587   1.576   1.586   1.544   1.528   1.554   1.547   1.564   1.566   1.562   1.554   1.571   1.564   1.576   1.574   1.542   1.540   1.498
    30.73    1.532   1.506   1.517   1.526   1.507   1.499   1.495   1.529   1.520   1.549   1.580   1.588   1.601   1.595   1.607   1.594   1.594   1.564   1.553   1.560   1.580   1.555   1.535   1.556   1.570   1.578   1.561   1.573   1.574   1.561   1.536   1.535   1.516
    26.66    1.570   1.538   1.538   1.533   1.543   1.500   1.508   1.542   1.551   1.554   1.582   1.575   1.594   1.598   1.587   1.580   1.572   1.553   1.544   1.541   1.565   1.556   1.567   1.565   1.557   1.592   1.585   1.577   1.555   1.548   1.544   1.557   1.536
    22.60    1.548   1.542   1.502   1.502   1.509   1.514   1.552   1.567   1.573   1.572   1.600   1.559   1.584   1.572   1.522   1.565   1.563   1.551   1.557   1.549   1.565   1.552   1.556   1.551   1.565   1.554   1.564   1.548   1.535   1.552   1.567   1.533   1.555

   Height   Standard deviation at grid points for the v component:
   152.60    1.155   1.131   1.142   1.140   1.152   1.142   1.138   1.145   1.167   1.173   1.180   1.186   1.175   1.180   1.157   1.147   1.154   1.158   1.164   1.171   1.181   1.182   1.164   1.154   1.174   1.183   1.182   1.187   1.174   1.149   1.147   1.156   1.160
   148.54    1.141   1.155   1.143   1.143   1.151   1.148   1.141   1.144   1.162   1.174   1.174   1.174   1.169   1.182   1.165   1.156   1.152   1.147   1.149   1.157   1.171   1.165   1.162   1.161   1.167   1.179   1.184   1.186   1.180   1.162   1.145   1.155   1.161
   144.48    1.162   1.168   1.161   1.156   1.147   1.159   1.155   1.156   1.171   1.173   1.147   1.151   1.166   1.179   1.155   1.127   1.134   1.144   1.132   1.144   1.163   1.152   1.154   1.156   1.152   1.182   1.181   1.175   1.175   1.164   1.145   1.147   1.156
   140.41    1.161   1.172   1.175   1.165   1.167   1.152   1.172   1.159   1.178   1.166   1.174   1.158   1.159   1.166   1.133   1.126   1.156   1.146   1.132   1.147   1.162   1.167   1.168   1.159   1.167   1.178   1.179   1.180   1.179   1.159   1.163   1.164   1.129
   136.35    1.174   1.169   1.164   1.165   1.162   1.185   1.190   1.200   1.175   1.170   1.173   1.155   1.167   1.172   1.143   1.128   1.118   1.144   1.152   1.146   1.154   1.160   1.165   1.173   1.159   1.167   1.187   1.183   1.170   1.156   1.156   1.165   1.133
   132.29    1.172   1.175   1.172   1.168   1.159   1.184   1.184   1.188   1.184   1.184   1.179   1.170   1.162   1.175   1.166   1.142   1.121   1.139   1.149   1.179   1.163   1.173   1.175   1.187   1.165   1.156   1.182   1.164   1.162   1.168   1.160   1.171   1.143
   128.23    1.175   1.194   1.189   1.199   1.177   1.172   1.175   1.190   1.189   1.181   1.181   1.190   1.171   1.174   1.183   1.159   1.149   1.136   1.139   1.164   1.151   1.180   1.153   1.154   1.147   1.162   1.176   1.157   1.161   1.159   1.168   1.160   1.133
   124.16    1.172   1.190   1.192   1.186   1.184   1.184   1.165   1.170   1.200   1.203   1.202   1.186   1.186   1.186   1.184   1.168   1.157   1.147   1.124   1.156   1.168   1.157   1.143   1.144   1.159   1.159   1.151   1.164   1.167   1.174   1.177   1.156   1.130
   120.10    1.192   1.198   1.205   1.193   1.200   1.185   1.166   1.192   1.192   1.210   1.191   1.207   1.212   1.183   1.181   1.175   1.146   1.134   1.139   1.165   1.167   1.178   1.144   1.145   1.149   1.138   1.131   1.143   1.165   1.158   1.170   1.130   1.139
   116.04    1.200   1.204   1.187   1.209   1.189   1.196   1.196   1.196   1.196   1.192   1.203   1.191   1.185   1.193   1.196   1.192   1.163   1.159   1.157   1.154   1.162   1.158   1.153   1.131   1.128   1.138   1.138   1.136   1.141   1.131   1.141   1.133   1.128
   111.98    1.193   1.199   1.193   1.217   1.218   1.193   1.198   1.197   1.192   1.202   1.197   1.200   1.202   1.196   1.194   1.190   1.186   1.182   1.174   1.155   1.156   1.139   1.136   1.137   1.135   1.145   1.147   1.119   1.120   1.125   1.137   1.141   1.128
   107.91    1.188   1.181   1.186   1.188   1.225   1.212   1.216   1.204   1.188   1.198   1.202   1.188   1.190   1.205   1.203   1.184   1.176   1.167   1.170   1.157   1.144   1.134   1.129   1.138   1.149   1.138   1.140   1.124   1.132   1.149   1.157   1.138   1.148
   103.85    1.164   1.159   1.172   1.182   1.196   1.217   1.222   1.195   1.194   1.185   1.189   1.190   1.187   1.203   1.184   1.170   1.169   1.166   1.157   1.135   1.138   1.115   1.139   1.145   1.150   1.137   1.138   1.147   1.143   1.150   1.159   1.151   1.141
    99.79    1.165   1.152   1.160   1.192   1.193   1.187   1.191   1.190   1.178   1.193   1.186   1.188   1.186   1.188   1.184   1.160   1.161   1.176   1.155   1.140   1.126   1.135   1.147   1.156   1.149   1.139   1.155   1.157   1.152   1.145   1.154   1.149   1.163
    95.73    1.160   1.163   1.183   1.192   1.201   1.198   1.194   1.191   1.187   1.179   1.200   1.178   1.191   1.180   1.179   1.183   1.179   1.157   1.160   1.165   1.143   1.132   1.139   1.160   1.148   1.146   1.153   1.154   1.164   1.173   1.157   1.156   1.145
    91.66    1.182   1.183   1.190   1.195   1.209   1.185   1.191   1.198   1.202   1.210   1.182   1.203   1.200   1.179   1.183   1.181   1.169   1.181   1.185   1.175   1.163   1.161   1.158   1.172   1.157   1.150   1.153   1.157   1.161   1.168   1.160   1.163   1.131
    87.60    1.190   1.178   1.195   1.199   1.206   1.194   1.184   1.205   1.201   1.194   1.199   1.206   1.199   1.201   1.185   1.189   1.188   1.191   1.186   1.176   1.182   1.173   1.164   1.168   1.167   1.159   1.164   1.180   1.170   1.167   1.155   1.147   1.143
    83.54    1.168   1.181   1.205   1.203   1.195   1.189   1.175   1.192   1.192   1.196   1.189   1.185   1.195   1.191   1.205   1.214   1.193   1.193   1.185   1.180   1.185   1.165   1.174   1.153   1.179   1.180   1.168   1.172   1.170   1.162   1.158   1.161   1.156
    79.48    1.167   1.176   1.191   1.194   1.198   1.212   1.202   1.186   1.173   1.195   1.189   1.175   1.187   1.179   1.200   1.192   1.185   1.186   1.193   1.183   1.180   1.171   1.150   1.159   1.173   1.166   1.168   1.169   1.163   1.172   1.180   1.178   1.144
    75.41    1.182   1.194   1.177   1.177   1.201   1.206   1.191   1.185   1.172   1.175   1.179   1.185   1.194   1.186   1.193   1.203   1.188   1.193   1.176   1.165   1.151   1.159   1.155   1.152   1.165   1.166   1.169   1.167   1.150   1.165   1.188   1.186   1.157
    71.35    1.188   1.184   1.170   1.190   1.189   1.184   1.174   1.169   1.157   1.181   1.211   1.193   1.188   1.196   1.195   1.191   1.175   1.181   1.155   1.146   1.148   1.143   1.137   1.154   1.166   1.172   1.171   1.154   1.163   1.164   1.164   1.170   1.168
    67.29    1.191   1.170   1.175   1.192   1.179   1.170   1.181   1.181   1.184   1.194   1.199   1.215   1.195   1.180   1.192   1.192   1.207   1.186   1.162   1.141   1.120   1.135   1.143   1.157   1.142   1.155   1.163   1.151   1.150   1.153   1.159   1.161   1.166
    63.23    1.183   1.166   1.172   1.165   1.168   1.186   1.176   1.197   1.209   1.192   1.195   1.205   1.198   1.198   1.196   1.193   1.202   1.191   1.183   1.160   1.148   1.161   1.170   1.169   1.169   1.171   1.150   1.147   1.152   1.160   1.156   1.161   1.167
    59.16    1.176   1.176   1.172   1.157   1.166   1.192   1.192   1.203   1.200   1.196   1.198   1.186   1.193   1.193   1.181   1.195   1.202   1.191   1.188   1.175   1.165   1.160   1.181   1.175   1.158   1.179   1.160   1.141   1.150   1.167   1.182   1.173   1.166
    55.10    1.183   1.181   1.175   1.182   1.182   1.196   1.197   1.189   1.183   1.168   1.174   1.186   1.196   1.198   1.193   1.190   1.178   1.194   1.189   1.183   1.177   1.182   1.187   1.185   1.173   1.172   1.166   1.163   1.137   1.166   1.167   1.164   1.165
    51.04    1.187   1.196   1.166   1.172   1.185   1.184   1.188   1.203   1.179   1.189   1.188   1.189   1.200   1.194   1.208   1.183   1.183   1.186   1.190   1.182   1.174   1.179   1.179   1.177   1.183   1.177   1.170   1.164   1.161   1.169   1.164   1.163   1.169
    46.98    1.184   1.183   1.160   1.160   1.161   1.160   1.177   1.181   1.185   1.182   1.188   1.178   1.191   1.188   1.191   1.184   1.194   1.188   1.182   1.197   1.192   1.192   1.180   1.174   1.182   1.190   1.180   1.169   1.157   1.147   1.167   1.151   1.158
    42.91    1.175   1.159   1.158   1.145   1.156   1.164   1.175   1.189   1.199   1.186   1.184   1.183   1.194   1.192   1.183   1.177   1.180   1.196   1.198   1.190   1.194   1.208   1.186   1.168   1.178   1.180   1.160   1.170   1.164   1.167   1.150   1.170   1.167
    38.85    1.167   1.157   1.143   1.148   1.154   1.172   1.183   1.176   1.196   1.193   1.188   1.173   1.193   1.185   1.188   1.188   1.190   1.185   1.186   1.173   1.185   1.204   1.192   1.173   1.175   1.164   1.165   1.165   1.172   1.163   1.176   1.183   1.173
    34.79    1.179   1.167   1.142   1.148   1.140   1.166   1.168   1.178   1.194   1.193   1.186   1.172   1.186   1.173   1.183   1.186   1.166   1.191   1.191   1.194   1.182   1.191   1.189   1.173   1.161   1.164   1.173   1.175   1.173   1.164   1.180   1.186   1.177
    30.73    1.171   1.160   1.158   1.140   1.161   1.158   1.177   1.174   1.184   1.190   1.192   1.181   1.173   1.168   1.160   1.177   1.177   1.168   1.178   1.202   1.204   1.214   1.179   1.182   1.181   1.177   1.162   1.178   1.172   1.169   1.163   1.173   1.177
    26.66    1.163   1.168   1.168   1.163   1.149   1.163   1.165   1.168   1.180   1.204   1.181   1.156   1.180   1.180   1.187   1.181   1.166   1.176   1.177   1.185   1.194   1.200   1.190   1.181   1.181   1.177   1.168   1.161   1.170   1.165   1.158   1.156   1.164
    22.60    1.172   1.171   1.175   1.172   1.152   1.159   1.162   1.168   1.168   1.171   1.168   1.170   1.169   1.179   1.177   1.176   1.172   1.185   1.185   1.191   1.182   1.187   1.170   1.166   1.173   1.179   1.186   1.169   1.172   1.170   1.154   1.150   1.141

   Height   Standard deviation at grid points for the w component:
   152.60    0.903   0.903   0.900   0.912   0.921   0.924   0.926   0.927   0.918   0.910   0.916   0.905   0.925   0.925   0.944   0.956   0.942   0.951   0.960   0.958   0.974   0.970   0.975   0.971   0.953   0.957   0.947   0.944   0.951   0.946   0.934   0.937   0.936
   148.54    0.897   0.896   0.914   0.922   0.917   0.929   0.933   0.923   0.912   0.905   0.915   0.909   0.923   0.929   0.943   0.945   0.946   0.945   0.952   0.950   0.965   0.968   0.969   0.956   0.952   0.947   0.932   0.944   0.954   0.946   0.935   0.938   0.934
   144.48    0.897   0.909   0.912   0.917   0.905   0.930   0.923   0.923   0.916   0.906   0.908   0.912   0.911   0.922   0.931   0.949   0.953   0.945   0.935   0.938   0.945   0.953   0.968   0.962   0.950   0.943   0.946   0.942   0.952   0.951   0.942   0.936   0.937
   140.41    0.907   0.900   0.906   0.908   0.910   0.931   0.930   0.935   0.919   0.914   0.907   0.919   0.903   0.923   0.937   0.943   0.946   0.933   0.924   0.940   0.952   0.954   0.961   0.957   0.959   0.953   0.945   0.932   0.933   0.929   0.928   0.940   0.926
   136.35    0.908   0.899   0.914   0.896   0.916   0.922   0.931   0.932   0.933   0.926   0.924   0.916   0.924   0.921   0.924   0.918   0.937   0.940   0.941   0.927   0.942   0.956   0.958   0.951   0.946   0.945   0.939   0.918   0.930   0.929   0.922   0.920   0.922
   132.29    0.898   0.908   0.914   0.909   0.913   0.913   0.907   0.919   0.929   0.930   0.937   0.922   0.920   0.909   0.917   0.928   0.926   0.942   0.931   0.934   0.929   0.951   0.946   0.944   0.943   0.938   0.928   0.923   0.934   0.931   0.912   0.913   0.923
   128.23    0.919   0.911   0.910   0.915   0.913   0.910   0.917   0.912   0.920   0.936   0.933   0.926   0.914   0.908   0.905   0.924   0.932   0.939   0.935   0.926   0.926   0.936   0.946   0.946   0.949   0.935   0.925   0.928   0.929   0.918   0.917   0.916   0.918
   124.16    0.925   0.916   0.915   0.905   0.898   0.904   0.902   0.910   0.925   0.933   0.934   0.921   0.913   0.913   0.918   0.924   0.926   0.930   0.927   0.921   0.939   0.942   0.941   0.938   0.928   0.934   0.936   0.924   0.924   0.929   0.925   0.921   0.920
   120.10    0.920   0.923   0.922   0.913   0.914   0.895   0.910   0.928   0.930   0.941   0.935   0.937   0.920   0.930   0.928   0.945   0.931   0.941   0.937   0.919   0.938   0.949   0.950   0.946   0.938   0.925   0.926   0.917   0.922   0.928   0.923   0.913   0.905
   116.04    0.933   0.916   0.928   0.916   0.905   0.904   0.928   0.933   0.937   0.942   0.934   0.935   0.936   0.935   0.929   0.929   0.938   0.939   0.940   0.940   0.948   0.949   0.938   0.941   0.936   0.926   0.920   0.921   0.931   0.917   0.917   0.918   0.923
   111.98    0.939   0.930   0.921   0.921   0.918   0.921   0.933   0.943   0.937   0.922   0.920   0.947   0.942   0.927   0.927   0.930   0.931   0.938   0.951   0.950   0.949   0.951   0.951   0.923   0.926   0.930   0.925   0.922   0.916   0.915   0.925   0.937   0.935
   107.91    0.934   0.935   0.931   0.925   0.918   0.928   0.932   0.940   0.935   0.920   0.919   0.938   0.947   0.935   0.925   0.927   0.930   0.937   0.948   0.946   0.942   0.956   0.963   0.950   0.935   0.945   0.934   0.918   0.918   0.916   0.915   0.928   0.938
   103.85    0.937   0.937   0.938   0.935   0.945   0.928   0.938   0.944   0.925   0.924   0.917   0.935   0.943   0.928   0.931   0.928   0.935   0.944   0.942   0.955   0.960   0.956   0.971   0.969   0.951   0.945   0.926   0.912   0.920   0.918   0.912   0.922   0.919
    99.79    0.933   0.937   0.933   0.929   0.937   0.933   0.946   0.942   0.928   0.931   0.930   0.930   0.933   0.937   0.930   0.939   0.942   0.940   0.944   0.956   0.946   0.965   0.977   0.969   0.960   0.947   0.930   0.915   0.920   0.920   0.914   0.926   0.910
    95.73    0.943   0.929   0.926   0.931   0.934   0.936   0.948   0.940   0.932   0.924   0.931   0.934   0.944   0.953   0.937   0.938   0.930   0.934   0.931   0.935   0.943   0.954   0.971   0.960   0.953   0.946   0.938   0.931   0.914   0.917   0.908   0.914   0.903
    91.66    0.935   0.922   0.929   0.937   0.939   0.939   0.942   0.934   0.933   0.927   0.927   0.932   0.947   0.966   0.948   0.939   0.943   0.929   0.938   0.960   0.954   0.952   0.953   0.947   0.941   0.940   0.936   0.920   0.910   0.900   0.905   0.897   0.918
    87.60    0.929   0.929   0.933   0.941   0.944   0.933   0.927   0.934   0.929   0.926   0.928   0.927   0.935   0.945   0.941   0.940   0.944   0.946   0.935   0.939   0.946   0.943   0.942   0.930   0.936   0.924   0.911   0.907   0.904   0.900   0.916   0.905   0.908
    83.54    0.933   0.940   0.937   0.945   0.955   0.941   0.925   0.931   0.916   0.931   0.926   0.914   0.927   0.939   0.934   0.936   0.956   0.955   0.943   0.937   0.948   0.942   0.949   0.942   0.926   0.911   0.914   0.904   0.903   0.910   0.902   0.888   0.915
    79.48    0.942   0.941   0.939   0.938   0.950   0.940   0.945   0.932   0.932   0.925   0.924   0.934   0.917   0.930   0.927   0.943   0.949   0.940   0.933   0.927   0.929   0.933   0.941   0.926   0.918   0.908   0.920   0.903   0.906   0.905   0.896   0.888   0.898
    75.41    0.945   0.930   0.936   0.937   0.949   0.942   0.953   0.939   0.940   0.930   0.923   0.934   0.926   0.918   0.927   0.938   0.936   0.929   0.931   0.923   0.920   0.918   0.922   0.916   0.914   0.898   0.905   0.904   0.913   0.908   0.897   0.897   0.899
    71.35    0.935   0.940   0.931   0.935   0.934   0.935   0.947   0.937   0.921   0.930   0.922   0.931   0.929   0.934   0.931   0.942   0.933   0.925   0.912   0.918   0.917   0.920   0.928   0.932   0.924   0.909   0.905   0.902   0.910   0.917   0.910   0.906   0.910
    67.29    0.929   0.922   0.923   0.930   0.935   0.949   0.929   0.928   0.924   0.930   0.921   0.913   0.928   0.929   0.933   0.936   0.925   0.920   0.906   0.918   0.925   0.924   0.921   0.916   0.928   0.916   0.913   0.905   0.907   0.911   0.907   0.900   0.899
    63.23    0.927   0.922   0.917   0.936   0.941   0.938   0.931   0.931   0.939   0.941   0.925   0.921   0.915   0.925   0.942   0.940   0.935   0.919   0.925   0.929   0.934   0.924   0.922   0.923   0.927   0.934   0.935   0.917   0.916   0.907   0.898   0.901   0.896
    59.16    0.925   0.933   0.928   0.944   0.928   0.934   0.928   0.928   0.932   0.935   0.935   0.933   0.930   0.923   0.935   0.937   0.931   0.932   0.922   0.928   0.926   0.920   0.927   0.909   0.923   0.937   0.935   0.938   0.938   0.923   0.917   0.902   0.900
    55.10    0.931   0.919   0.929   0.928   0.929   0.934   0.929   0.935   0.934   0.927   0.925   0.917   0.919   0.920   0.927   0.918   0.921   0.917   0.919   0.931   0.921   0.917   0.923   0.928   0.924   0.937   0.943   0.937   0.930   0.927   0.920   0.909   0.901
    51.04    0.931   0.913   0.926   0.945   0.942   0.942   0.936   0.935   0.921   0.931   0.920   0.911   0.910   0.906   0.921   0.909   0.917   0.917   0.914   0.924   0.927   0.923   0.929   0.935   0.933   0.937   0.939   0.938   0.930   0.923   0.923   0.920   0.913
    46.98    0.933   0.927   0.928   0.944   0.928   0.929   0.925   0.936   0.938   0.934   0.928   0.925   0.911   0.909   0.904   0.912   0.917   0.924   0.928   0.917   0.912   0.907   0.924   0.937   0.929   0.942   0.946   0.932   0.924   0.927   0.931   0.921   0.925
    42.91    0.920   0.911   0.932   0.936   0.928   0.919   0.920   0.924   0.925   0.935   0.924   0.925   0.928   0.918   0.910   0.912   0.921   0.919   0.924   0.914   0.899   0.910   0.910   0.921   0.936   0.932   0.933   0.930   0.923   0.924   0.929   0.932   0.920
    38.85    0.911   0.922   0.930   0.927   0.930   0.919   0.917   0.919   0.921   0.934   0.925   0.923   0.918   0.919   0.916   0.915   0.911   0.911   0.921   0.914   0.915   0.923   0.927   0.931   0.926   0.926   0.940   0.935   0.930   0.932   0.943   0.920   0.917
    34.79    0.925   0.925   0.933   0.937   0.926   0.929   0.917   0.922   0.933   0.922   0.916   0.923   0.916   0.914   0.910   0.906   0.918   0.906   0.914   0.906   0.909   0.911   0.920   0.930   0.929   0.922   0.930   0.929   0.932   0.942   0.941   0.932   0.928
    30.73    0.916   0.926   0.929   0.924   0.915   0.918   0.917   0.917   0.913   0.909   0.929   0.919   0.906   0.910   0.913   0.904   0.898   0.916   0.911   0.911   0.910   0.912   0.912   0.916   0.931   0.920   0.922   0.916   0.928   0.928   0.931   0.926   0.923
    26.66    0.917   0.915   0.916   0.926   0.930   0.920   0.915   0.908   0.906   0.916   0.923   0.909   0.905   0.911   0.917   0.903   0.907   0.915   0.914   0.917   0.922   0.910   0.899   0.918   0.920   0.926   0.924   0.906   0.918   0.919   0.914   0.918   0.914
    22.60    0.915   0.906   0.919   0.923   0.925   0.924   0.919   0.910   0.905   0.912   0.914   0.907   0.905   0.905   0.910   0.906   0.903   0.910   0.902   0.915   0.911   0.903   0.903   0.909   0.919   0.917   0.911   0.904   0.916   0.913   0.907   0.914   0.910

   Mean standard deviation across all grid points:
      u component:    1.569 m/s
      v component:    1.172 m/s
      w component:    0.927 m/s


U-component (X) statistics from the hub grid point:

   Mean =  14.0000 m/s
   TI   =  10.9974 %

Nyquist frequency of turbulent wind field =        10.000 Hz


Processing complete.  2877.9 CPU seconds used.
