
This summary file was generated by TurbSim (v1.06.00, 21-Sep-2012) on 24-Sep-2020 at 13:45:37.


Runtime Options:

  65432154  Random seed #1
    RANLUX  Type of random number generator
         F  Output binary HH turbulence parameters?
         F  Output formatted turbulence parameters?
         F  Output AeroDyn HH files?
         T  Output AeroDyn FF files?
         F  Output BLADED FF files?
         T  Output tower data?
         F  Output formatted FF files?
         F  Output coherent turbulence time step file?
         T  Clockwise rotation when looking downwind?
 0 -  NONE  IEC turbulence models scaled to exact specified standard deviation


Turbine/Model Specifications:

        33  Vertical grid-point matrix dimension
        33  Horizontal grid-point matrix dimension
     0.050  Time step [seconds]
  3610.000  Analysis time [seconds]
  3610.000  Usable output time [seconds]
    87.600  Hub height [m]
   130.000  Grid height [m]
   130.000  Grid width [m]
     0.000  Vertical flow angle [degrees]
     0.000  Horizontal flow angle [degrees]


Meteorological Boundary Conditions:

    SMOOTH  RISO Smooth Terrain spectral model
       N/A  IEC standard
       N/A  IEC turbulence characteristic
       N/A  IEC turbulence type
       N/A  IEC Extreme Turbulence Model (ETM) "c" parameter [m/s]
       IEC  Wind profile type
    87.600  Reference height [m]
    20.000  Reference wind speed [m/s]
       N/A  Jet height [m]
     0.143  Power law exponent
     0.010  Surface roughness length [m]


Non-IEC Meteorological Boundary Conditions:

    45.000  Site latitude [degrees]
     0.050  Gradient Richardson number
     0.850  Friction or shear velocity [m/s]
       N/A  Mixing layer depth [m]
    -0.723  Mean hub u'w' Reynolds stress
       N/A  Mean hub u'v' Reynolds stress
       N/A  Mean hub v'w' Reynolds stress
(   20.000,  0.00    )  u-component coherence parameters
(   15.000,  0.00    )  v-component coherence parameters
(   15.000,  0.00    )  w-component coherence parameters
     0.000  Coherence exponent


You have requested that the following file(s) be generated:

   unsteady_tmp_20.bts (AeroDyn/TurbSim full-field wind file)


Turbulence Simulation Scaling Parameter Summary:

   Turbulence model used                            =  RISO Smooth Terrain
   Gradient Richardson number                       =    0.050
   Monin-Obukhov (M-O) z/L parameter                =    0.067
   Monin-Obukhov (M-O) length scale                 = 1314.000 m
   Mean wind speed at hub height                    =   20.000 m/s

   Wind profile type                                =  Power law on rotor disk, logarithmic elsewhere
   Power law exponent                               =    0.143
   Mean shear across rotor disk                     =    0.037 (m/s)/m
   Assumed rotor diameter                           =  130.000 m
   Surface roughness length                         =    0.010 m

   Number of time steps in the FFT                  =    72352
   Number of time steps output                      =    72330


Mean Flow Angles:

   Vertical   =   0.0 degrees
   Horizontal =   0.0 degrees

Mean Wind Speed Profile:

   Height    Wind Speed   Horizontal Angle  U-comp (X)   V-comp (Y)   W-comp (Z)
     (m)        (m/s)         (degrees)       (m/s)        (m/s)        (m/s)   
   ------    ----------   ----------------  ----------   ----------   ----------
    152.6       21.22            0.00         21.22         0.00         0.00
    148.5       21.57            0.00         21.57         0.00         0.00
    144.5       21.48            0.00         21.48         0.00         0.00
    140.4       21.40            0.00         21.40         0.00         0.00
    136.4       21.31            0.00         21.31         0.00         0.00
    132.3       21.21            0.00         21.21         0.00         0.00
    128.2       21.12            0.00         21.12         0.00         0.00
    124.2       21.02            0.00         21.02         0.00         0.00
    120.1       20.92            0.00         20.92         0.00         0.00
    116.0       20.82            0.00         20.82         0.00         0.00
    112.0       20.71            0.00         20.71         0.00         0.00
    107.9       20.61            0.00         20.61         0.00         0.00
    103.9       20.49            0.00         20.49         0.00         0.00
     99.8       20.38            0.00         20.38         0.00         0.00
     95.7       20.26            0.00         20.26         0.00         0.00
     91.7       20.13            0.00         20.13         0.00         0.00
     87.6       20.00            0.00         20.00         0.00         0.00
     83.5       19.86            0.00         19.86         0.00         0.00
     79.5       19.72            0.00         19.72         0.00         0.00
     75.4       19.58            0.00         19.58         0.00         0.00
     71.4       19.42            0.00         19.42         0.00         0.00
     67.3       19.26            0.00         19.26         0.00         0.00
     63.2       19.09            0.00         19.09         0.00         0.00
     59.2       18.91            0.00         18.91         0.00         0.00
     55.1       18.72            0.00         18.72         0.00         0.00
     51.0       18.51            0.00         18.51         0.00         0.00
     47.0       18.29            0.00         18.29         0.00         0.00
     42.9       18.06            0.00         18.06         0.00         0.00
     38.9       17.80            0.00         17.80         0.00         0.00
     34.8       17.53            0.00         17.53         0.00         0.00
     30.7       17.22            0.00         17.22         0.00         0.00
     26.7       16.87            0.00         16.87         0.00         0.00
     22.6       16.48            0.00         16.48         0.00         0.00
     18.5       16.58            0.00         16.58         0.00         0.00
     14.5       16.03            0.00         16.03         0.00         0.00
     10.4       15.31            0.00         15.31         0.00         0.00
      6.4       14.22            0.00         14.22         0.00         0.00
      2.3       11.97            0.00         11.97         0.00         0.00


Harvested Random Seeds after Generation of the Random Numbers:

    103196164 K1
            1 K2


Scaling statistics from the hub grid point:

   Cross-Component  Scaling Factor
   ---------------  --------------
   u'w'               -0.15981E+00
   u'v'                0.00000E+00
   v'w'                0.00000E+00


Hub-Height Simulated Turbulence Statistical Summary:

   Type of Wind        Min (m/s)   Mean (m/s)    Max (m/s)  Sigma (m/s)       TI (%)
   ----------------    ---------   ----------    ---------  -----------       ------
   Longitudinal (u)        12.09        20.00        28.47        2.253       11.265
   Lateral (v)             -6.71         0.00         7.58        1.676        8.379
   Vertical (w)            -4.70         0.00         5.23        1.326        6.628
   U component             12.09        20.00        28.47        2.253       11.265
   V component             -6.71         0.00         7.58        1.676        8.379
   W component             -4.70         0.00         5.23        1.326        6.628
   Horizontal (U&V)        12.19        20.07        28.47        2.245       11.183
   Total                   12.47        20.12        28.55        2.240       11.136

                       Min Reynolds     Mean Reynolds    Max Reynolds    Correlation
   Product             Stress (m/s)^2   Stress (m/s)^2   Stress (m/s)^2  Coefficient
   ----------------    --------------   --------------   --------------  -----------
   u'w'                    -25.550            -0.723            14.863        -0.242
   u'v'                    -29.382             0.080            32.842         0.021
   v'w'                    -16.680            -0.034            20.832        -0.016


   Friction Velocity (Ustar)  =      0.850 m/s
   Maximum Instantaneous TKE  =     38.327 (m/s)^2
   Maximum Instantaneous CTKE =     18.934 (m/s)^2


Grid Point Variance Summary:

   Y-coord  -65.00  -60.94  -56.88  -52.81  -48.75  -44.69  -40.62  -36.56  -32.50  -28.44  -24.38  -20.31  -16.25  -12.19   -8.12   -4.06    0.00    4.06    8.12   12.19   16.25   20.31   24.38   28.44   32.50   36.56   40.62   44.69   48.75   52.81   56.88   60.94   65.00

   Height   Standard deviation at grid points for the u component:
   152.60    2.074   2.079   2.102   2.106   2.075   2.117   2.093   2.096   2.062   2.040   2.083   2.100   2.096   2.116   2.137   2.146   2.113   2.116   2.168   2.174   2.130   2.127   2.092   2.096   2.107   2.071   2.032   1.988   2.011   2.026   2.044   2.011   2.056
   148.54    2.049   2.087   2.127   2.150   2.138   2.148   2.107   2.122   2.094   2.083   2.121   2.124   2.160   2.116   2.135   2.141   2.119   2.159   2.173   2.145   2.123   2.110   2.095   2.098   2.115   2.078   2.068   2.009   2.042   2.057   2.055   2.058   2.038
   144.48    2.098   2.123   2.139   2.192   2.173   2.172   2.154   2.146   2.110   2.101   2.129   2.171   2.176   2.159   2.158   2.110   2.153   2.151   2.162   2.173   2.135   2.153   2.134   2.109   2.085   2.065   2.054   2.022   2.076   2.050   2.057   2.051   2.083
   140.41    2.139   2.179   2.181   2.188   2.185   2.206   2.188   2.175   2.139   2.160   2.157   2.197   2.200   2.214   2.223   2.180   2.169   2.159   2.188   2.155   2.150   2.162   2.156   2.158   2.063   2.038   2.069   2.049   2.056   2.056   2.082   2.051   2.065
   136.35    2.183   2.176   2.206   2.200   2.228   2.223   2.246   2.190   2.168   2.177   2.227   2.231   2.179   2.246   2.215   2.214   2.206   2.233   2.226   2.156   2.153   2.172   2.139   2.099   2.111   2.054   2.078   2.078   2.080   2.063   2.078   2.061   2.058
   132.29    2.221   2.184   2.207   2.210   2.239   2.236   2.213   2.169   2.153   2.178   2.238   2.285   2.261   2.217   2.218   2.196   2.247   2.273   2.267   2.245   2.174   2.169   2.148   2.130   2.111   2.125   2.069   2.078   2.106   2.111   2.099   2.121   2.121
   128.23    2.204   2.201   2.192   2.219   2.216   2.183   2.197   2.195   2.168   2.216   2.243   2.286   2.275   2.257   2.255   2.227   2.254   2.259   2.262   2.224   2.235   2.192   2.140   2.130   2.115   2.114   2.136   2.115   2.092   2.114   2.086   2.119   2.154
   124.16    2.217   2.176   2.196   2.218   2.183   2.206   2.200   2.198   2.187   2.229   2.200   2.280   2.269   2.264   2.238   2.217   2.229   2.248   2.247   2.281   2.222   2.189   2.129   2.111   2.148   2.168   2.172   2.159   2.155   2.125   2.137   2.167   2.163
   120.10    2.212   2.189   2.211   2.221   2.190   2.195   2.221   2.250   2.246   2.243   2.231   2.239   2.305   2.260   2.273   2.225   2.257   2.277   2.245   2.198   2.189   2.141   2.157   2.179   2.198   2.211   2.190   2.195   2.142   2.142   2.163   2.200   2.154
   116.04    2.204   2.174   2.166   2.249   2.221   2.221   2.211   2.230   2.278   2.291   2.277   2.289   2.263   2.268   2.265   2.237   2.247   2.265   2.233   2.208   2.157   2.157   2.179   2.198   2.238   2.208   2.201   2.187   2.164   2.138   2.180   2.169   2.164
   111.98    2.194   2.163   2.179   2.237   2.267   2.269   2.257   2.223   2.297   2.254   2.243   2.281   2.298   2.245   2.259   2.261   2.272   2.269   2.219   2.190   2.193   2.166   2.203   2.207   2.209   2.221   2.206   2.174   2.157   2.156   2.154   2.148   2.178
   107.91    2.212   2.173   2.200   2.193   2.217   2.227   2.226   2.245   2.277   2.239   2.254   2.259   2.277   2.273   2.268   2.277   2.280   2.250   2.224   2.242   2.201   2.216   2.215   2.202   2.190   2.205   2.177   2.159   2.155   2.162   2.146   2.176   2.184
   103.85    2.187   2.188   2.164   2.176   2.178   2.230   2.217   2.235   2.237   2.262   2.258   2.229   2.237   2.273   2.285   2.272   2.262   2.239   2.232   2.240   2.263   2.272   2.275   2.205   2.202   2.187   2.182   2.120   2.130   2.150   2.147   2.139   2.148
    99.79    2.171   2.164   2.170   2.167   2.168   2.212   2.198   2.240   2.248   2.221   2.199   2.218   2.245   2.263   2.285   2.253   2.198   2.221   2.256   2.254   2.250   2.255   2.231   2.184   2.183   2.177   2.147   2.124   2.108   2.157   2.115   2.115   2.157
    95.73    2.217   2.229   2.143   2.130   2.186   2.204   2.204   2.201   2.242   2.208   2.198   2.218   2.220   2.244   2.295   2.250   2.214   2.201   2.254   2.275   2.248   2.220   2.193   2.176   2.159   2.143   2.102   2.120   2.120   2.121   2.155   2.152   2.208
    91.66    2.227   2.245   2.194   2.175   2.193   2.192   2.219   2.220   2.205   2.212   2.205   2.226   2.222   2.195   2.256   2.244   2.254   2.220   2.241   2.277   2.273   2.214   2.181   2.162   2.168   2.122   2.106   2.111   2.087   2.136   2.147   2.155   2.195
    87.60    2.233   2.249   2.231   2.220   2.212   2.206   2.232   2.221   2.225   2.233   2.239   2.197   2.223   2.221   2.210   2.247   2.253   2.275   2.250   2.276   2.253   2.250   2.220   2.197   2.181   2.152   2.122   2.143   2.127   2.134   2.146   2.219   2.208
    83.54    2.271   2.269   2.277   2.265   2.216   2.229   2.221   2.233   2.243   2.252   2.235   2.213   2.220   2.208   2.246   2.262   2.256   2.265   2.286   2.317   2.296   2.275   2.223   2.179   2.170   2.144   2.128   2.157   2.125   2.106   2.147   2.186   2.167
    79.48    2.254   2.232   2.234   2.283   2.267   2.254   2.290   2.275   2.260   2.230   2.250   2.222   2.212   2.179   2.228   2.248   2.234   2.218   2.250   2.216   2.247   2.238   2.176   2.157   2.142   2.150   2.138   2.148   2.135   2.102   2.135   2.197   2.202
    75.41    2.236   2.222   2.267   2.293   2.250   2.240   2.296   2.301   2.292   2.282   2.246   2.216   2.191   2.227   2.260   2.216   2.229   2.218   2.181   2.169   2.139   2.143   2.153   2.133   2.093   2.126   2.140   2.165   2.117   2.105   2.138   2.190   2.233
    71.35    2.219   2.205   2.237   2.260   2.238   2.261   2.295   2.295   2.292   2.299   2.283   2.269   2.199   2.236   2.239   2.232   2.201   2.183   2.161   2.131   2.118   2.086   2.095   2.102   2.107   2.141   2.100   2.112   2.113   2.159   2.190   2.193   2.218
    67.29    2.228   2.250   2.235   2.234   2.216   2.249   2.313   2.296   2.250   2.275   2.291   2.261   2.257   2.225   2.251   2.252   2.260   2.201   2.147   2.127   2.155   2.110   2.096   2.134   2.120   2.117   2.148   2.141   2.135   2.152   2.172   2.187   2.186
    63.23    2.217   2.248   2.238   2.239   2.218   2.226   2.277   2.268   2.256   2.260   2.210   2.250   2.265   2.265   2.243   2.260   2.202   2.159   2.134   2.136   2.152   2.156   2.134   2.120   2.097   2.162   2.160   2.151   2.182   2.202   2.183   2.231   2.195
    59.16    2.170   2.182   2.242   2.246   2.180   2.177   2.199   2.202   2.215   2.208   2.213   2.219   2.249   2.242   2.197   2.209   2.199   2.182   2.171   2.168   2.112   2.107   2.122   2.134   2.159   2.179   2.193   2.189   2.217   2.250   2.220   2.224   2.239
    55.10    2.195   2.182   2.218   2.187   2.200   2.189   2.175   2.165   2.204   2.200   2.244   2.257   2.245   2.231   2.234   2.235   2.204   2.175   2.153   2.144   2.130   2.137   2.165   2.167   2.151   2.187   2.180   2.207   2.204   2.214   2.234   2.191   2.199
    51.04    2.181   2.191   2.192   2.175   2.181   2.194   2.185   2.211   2.244   2.215   2.205   2.241   2.177   2.206   2.224   2.208   2.205   2.197   2.155   2.159   2.159   2.128   2.146   2.139   2.150   2.160   2.184   2.212   2.214   2.193   2.224   2.224   2.195
    46.98    2.204   2.199   2.188   2.216   2.190   2.200   2.210   2.213   2.233   2.223   2.231   2.240   2.215   2.186   2.184   2.175   2.173   2.189   2.189   2.203   2.156   2.141   2.170   2.174   2.145   2.133   2.160   2.164   2.200   2.214   2.236   2.236   2.190
    42.91    2.226   2.223   2.213   2.202   2.155   2.159   2.213   2.275   2.269   2.233   2.227   2.192   2.191   2.166   2.182   2.175   2.156   2.176   2.213   2.182   2.188   2.180   2.161   2.187   2.157   2.167   2.190   2.172   2.188   2.179   2.221   2.217   2.204
    38.85    2.198   2.190   2.176   2.189   2.170   2.176   2.247   2.257   2.244   2.229   2.205   2.212   2.188   2.189   2.147   2.123   2.153   2.153   2.168   2.195   2.221   2.177   2.189   2.167   2.160   2.191   2.164   2.186   2.169   2.221   2.187   2.198   2.194
    34.79    2.211   2.174   2.167   2.164   2.195   2.201   2.230   2.254   2.201   2.206   2.251   2.214   2.242   2.218   2.174   2.146   2.140   2.179   2.182   2.183   2.220   2.183   2.159   2.180   2.160   2.200   2.211   2.215   2.190   2.160   2.169   2.194   2.165
    30.73    2.192   2.179   2.201   2.206   2.197   2.245   2.217   2.212   2.217   2.220   2.242   2.228   2.197   2.177   2.185   2.163   2.155   2.163   2.167   2.146   2.167   2.212   2.203   2.212   2.205   2.225   2.230   2.218   2.237   2.197   2.203   2.217   2.192
    26.66    2.196   2.215   2.208   2.175   2.186   2.198   2.208   2.192   2.227   2.280   2.305   2.230   2.226   2.235   2.199   2.167   2.161   2.189   2.150   2.128   2.159   2.164   2.200   2.186   2.191   2.216   2.142   2.181   2.206   2.190   2.194   2.199   2.203
    22.60    2.209   2.204   2.215   2.198   2.210   2.185   2.193   2.220   2.273   2.261   2.249   2.279   2.213   2.169   2.195   2.163   2.168   2.147   2.157   2.151   2.171   2.153   2.172   2.173   2.203   2.233   2.161   2.192   2.177   2.153   2.172   2.198   2.183

   Height   Standard deviation at grid points for the v component:
   152.60    1.682   1.684   1.676   1.687   1.701   1.722   1.737   1.743   1.738   1.717   1.711   1.690   1.684   1.683   1.658   1.644   1.651   1.647   1.662   1.672   1.648   1.648   1.636   1.604   1.614   1.628   1.660   1.669   1.655   1.697   1.705   1.700   1.715
   148.54    1.685   1.697   1.696   1.695   1.719   1.731   1.731   1.756   1.726   1.732   1.715   1.705   1.714   1.702   1.692   1.658   1.647   1.658   1.668   1.667   1.662   1.678   1.661   1.612   1.618   1.609   1.651   1.646   1.658   1.674   1.681   1.688   1.710
   144.48    1.713   1.724   1.729   1.723   1.738   1.734   1.721   1.743   1.715   1.712   1.718   1.702   1.709   1.710   1.699   1.667   1.646   1.651   1.679   1.684   1.668   1.663   1.646   1.650   1.615   1.635   1.675   1.669   1.662   1.674   1.661   1.666   1.699
   140.41    1.719   1.727   1.719   1.738   1.758   1.770   1.773   1.742   1.729   1.724   1.734   1.712   1.701   1.685   1.687   1.662   1.644   1.685   1.668   1.659   1.635   1.654   1.635   1.656   1.660   1.664   1.687   1.689   1.663   1.662   1.652   1.654   1.669
   136.35    1.700   1.707   1.710   1.724   1.754   1.767   1.759   1.739   1.737   1.735   1.729   1.717   1.687   1.699   1.681   1.674   1.669   1.668   1.676   1.644   1.646   1.654   1.675   1.681   1.674   1.675   1.698   1.697   1.697   1.665   1.657   1.676   1.678
   132.29    1.710   1.705   1.718   1.707   1.716   1.765   1.771   1.745   1.735   1.739   1.724   1.697   1.688   1.685   1.681   1.677   1.684   1.667   1.654   1.675   1.662   1.669   1.674   1.686   1.718   1.700   1.684   1.683   1.670   1.671   1.662   1.680   1.688
   128.23    1.702   1.694   1.717   1.724   1.745   1.757   1.768   1.742   1.749   1.746   1.723   1.707   1.703   1.698   1.698   1.687   1.677   1.660   1.659   1.657   1.687   1.677   1.666   1.663   1.701   1.677   1.686   1.678   1.684   1.668   1.658   1.660   1.671
   124.16    1.698   1.680   1.703   1.709   1.731   1.749   1.745   1.758   1.758   1.750   1.734   1.691   1.707   1.708   1.679   1.678   1.692   1.682   1.673   1.675   1.715   1.703   1.673   1.667   1.672   1.678   1.679   1.656   1.661   1.644   1.671   1.642   1.657
   120.10    1.692   1.699   1.708   1.700   1.739   1.728   1.722   1.741   1.753   1.726   1.702   1.701   1.709   1.709   1.695   1.676   1.696   1.656   1.703   1.692   1.712   1.691   1.684   1.652   1.659   1.664   1.678   1.665   1.625   1.646   1.648   1.634   1.657
   116.04    1.717   1.721   1.705   1.709   1.731   1.737   1.722   1.719   1.731   1.733   1.715   1.728   1.697   1.693   1.692   1.685   1.712   1.712   1.705   1.714   1.704   1.691   1.686   1.689   1.680   1.683   1.677   1.671   1.641   1.641   1.630   1.641   1.651
   111.98    1.733   1.738   1.733   1.738   1.736   1.725   1.698   1.706   1.720   1.719   1.705   1.725   1.711   1.701   1.693   1.691   1.699   1.700   1.701   1.725   1.719   1.697   1.689   1.693   1.666   1.687   1.685   1.672   1.664   1.626   1.634   1.661   1.651
   107.91    1.701   1.727   1.734   1.716   1.703   1.701   1.705   1.698   1.725   1.740   1.721   1.686   1.706   1.687   1.689   1.691   1.717   1.708   1.704   1.697   1.679   1.675   1.653   1.662   1.664   1.670   1.671   1.678   1.671   1.683   1.659   1.663   1.663
   103.85    1.708   1.737   1.750   1.723   1.706   1.689   1.702   1.694   1.723   1.747   1.703   1.703   1.697   1.734   1.715   1.702   1.681   1.698   1.700   1.687   1.671   1.681   1.665   1.659   1.669   1.704   1.697   1.682   1.675   1.681   1.664   1.660   1.681
    99.79    1.751   1.747   1.718   1.729   1.700   1.703   1.697   1.708   1.717   1.717   1.712   1.698   1.705   1.734   1.728   1.704   1.686   1.678   1.687   1.688   1.677   1.673   1.670   1.678   1.700   1.705   1.694   1.696   1.691   1.696   1.676   1.691   1.691
    95.73    1.750   1.723   1.709   1.724   1.745   1.720   1.744   1.736   1.711   1.687   1.692   1.693   1.684   1.721   1.695   1.677   1.678   1.658   1.648   1.647   1.666   1.690   1.686   1.674   1.685   1.705   1.678   1.689   1.705   1.696   1.679   1.683   1.682
    91.66    1.738   1.723   1.735   1.751   1.750   1.736   1.715   1.740   1.717   1.702   1.711   1.706   1.705   1.700   1.688   1.667   1.665   1.672   1.656   1.655   1.628   1.633   1.645   1.659   1.671   1.694   1.690   1.678   1.691   1.706   1.692   1.675   1.670
    87.60    1.715   1.736   1.731   1.735   1.728   1.727   1.709   1.727   1.731   1.715   1.729   1.716   1.696   1.691   1.683   1.666   1.676   1.659   1.681   1.658   1.645   1.634   1.641   1.659   1.661   1.695   1.700   1.685   1.671   1.682   1.684   1.654   1.648
    83.54    1.712   1.709   1.726   1.745   1.742   1.723   1.709   1.713   1.742   1.718   1.724   1.712   1.712   1.691   1.697   1.695   1.678   1.686   1.682   1.668   1.658   1.643   1.636   1.676   1.676   1.668   1.668   1.661   1.653   1.663   1.674   1.663   1.659
    79.48    1.734   1.727   1.715   1.747   1.743   1.712   1.712   1.719   1.728   1.742   1.689   1.690   1.686   1.668   1.672   1.675   1.696   1.705   1.696   1.666   1.674   1.669   1.644   1.673   1.694   1.684   1.672   1.664   1.679   1.692   1.673   1.690   1.674
    75.41    1.712   1.732   1.724   1.715   1.735   1.703   1.703   1.701   1.713   1.726   1.706   1.668   1.690   1.688   1.671   1.672   1.663   1.681   1.677   1.659   1.697   1.677   1.668   1.682   1.691   1.680   1.664   1.681   1.662   1.678   1.679   1.685   1.679
    71.35    1.702   1.701   1.721   1.745   1.736   1.699   1.711   1.712   1.721   1.709   1.715   1.693   1.690   1.686   1.704   1.672   1.655   1.676   1.683   1.668   1.668   1.681   1.706   1.689   1.684   1.660   1.655   1.683   1.664   1.670   1.651   1.649   1.645
    67.29    1.699   1.700   1.716   1.739   1.725   1.738   1.739   1.731   1.723   1.735   1.699   1.693   1.689   1.702   1.689   1.679   1.659   1.667   1.695   1.672   1.689   1.687   1.677   1.670   1.681   1.654   1.671   1.667   1.677   1.671   1.668   1.658   1.654
    63.23    1.692   1.693   1.715   1.732   1.716   1.734   1.723   1.720   1.721   1.734   1.717   1.691   1.686   1.697   1.685   1.685   1.676   1.682   1.712   1.693   1.690   1.692   1.674   1.681   1.676   1.666   1.685   1.665   1.669   1.675   1.673   1.671   1.680
    59.16    1.679   1.708   1.697   1.709   1.706   1.708   1.735   1.732   1.745   1.732   1.697   1.688   1.686   1.685   1.694   1.699   1.691   1.684   1.694   1.658   1.685   1.689   1.701   1.687   1.693   1.680   1.674   1.660   1.681   1.665   1.680   1.670   1.678
    55.10    1.706   1.695   1.699   1.689   1.683   1.701   1.719   1.716   1.707   1.709   1.690   1.683   1.707   1.694   1.698   1.706   1.691   1.693   1.664   1.657   1.666   1.674   1.692   1.696   1.680   1.665   1.674   1.652   1.659   1.673   1.665   1.662   1.671
    51.04    1.697   1.724   1.701   1.689   1.691   1.684   1.682   1.695   1.705   1.676   1.676   1.682   1.696   1.698   1.700   1.701   1.677   1.673   1.660   1.668   1.650   1.659   1.691   1.689   1.713   1.677   1.647   1.666   1.659   1.653   1.661   1.659   1.684
    46.98    1.698   1.685   1.717   1.712   1.700   1.690   1.690   1.700   1.683   1.690   1.687   1.707   1.689   1.693   1.687   1.699   1.677   1.681   1.681   1.657   1.660   1.663   1.701   1.700   1.695   1.686   1.663   1.665   1.664   1.657   1.670   1.698   1.685
    42.91    1.704   1.689   1.682   1.709   1.709   1.707   1.697   1.701   1.696   1.672   1.671   1.689   1.694   1.678   1.663   1.665   1.659   1.659   1.656   1.668   1.664   1.691   1.695   1.687   1.672   1.670   1.666   1.675   1.668   1.677   1.668   1.701   1.695
    38.85    1.689   1.701   1.679   1.704   1.719   1.720   1.696   1.694   1.696   1.695   1.689   1.672   1.662   1.672   1.646   1.628   1.649   1.659   1.675   1.645   1.654   1.682   1.695   1.706   1.679   1.671   1.676   1.666   1.671   1.684   1.693   1.682   1.678
    34.79    1.686   1.699   1.693   1.684   1.703   1.691   1.695   1.693   1.698   1.687   1.671   1.658   1.668   1.658   1.645   1.630   1.646   1.650   1.661   1.655   1.656   1.671   1.658   1.693   1.672   1.666   1.670   1.670   1.677   1.687   1.699   1.686   1.668
    30.73    1.683   1.683   1.688   1.679   1.685   1.681   1.677   1.694   1.692   1.684   1.661   1.656   1.652   1.667   1.679   1.654   1.645   1.636   1.638   1.641   1.660   1.662   1.678   1.687   1.648   1.672   1.675   1.669   1.668   1.660   1.689   1.681   1.673
    26.66    1.666   1.670   1.702   1.692   1.702   1.697   1.685   1.687   1.688   1.674   1.655   1.658   1.662   1.685   1.669   1.653   1.656   1.671   1.653   1.653   1.665   1.676   1.681   1.667   1.652   1.662   1.655   1.670   1.659   1.674   1.676   1.674   1.671
    22.60    1.667   1.678   1.696   1.685   1.687   1.690   1.688   1.677   1.710   1.692   1.667   1.677   1.684   1.672   1.670   1.650   1.676   1.662   1.662   1.653   1.657   1.657   1.658   1.655   1.667   1.673   1.661   1.657   1.661   1.654   1.649   1.675   1.674

   Height   Standard deviation at grid points for the w component:
   152.60    1.326   1.333   1.336   1.345   1.339   1.336   1.362   1.359   1.349   1.329   1.325   1.325   1.339   1.337   1.329   1.322   1.319   1.341   1.342   1.326   1.336   1.328   1.324   1.343   1.332   1.349   1.351   1.358   1.351   1.341   1.338   1.353   1.346
   148.54    1.323   1.333   1.347   1.371   1.347   1.363   1.366   1.364   1.359   1.334   1.332   1.351   1.334   1.333   1.324   1.314   1.338   1.348   1.327   1.313   1.330   1.334   1.320   1.334   1.332   1.344   1.357   1.365   1.357   1.348   1.337   1.347   1.336
   144.48    1.313   1.325   1.335   1.357   1.380   1.384   1.367   1.347   1.343   1.329   1.333   1.351   1.347   1.335   1.325   1.328   1.344   1.340   1.335   1.321   1.324   1.330   1.314   1.326   1.344   1.343   1.366   1.364   1.349   1.342   1.359   1.343   1.341
   140.41    1.329   1.323   1.356   1.357   1.365   1.368   1.369   1.361   1.344   1.325   1.346   1.343   1.344   1.341   1.328   1.325   1.328   1.335   1.332   1.327   1.314   1.321   1.319   1.334   1.348   1.361   1.346   1.362   1.367   1.352   1.354   1.339   1.345
   136.35    1.355   1.350   1.351   1.356   1.359   1.364   1.355   1.358   1.342   1.342   1.333   1.353   1.340   1.345   1.324   1.328   1.313   1.326   1.345   1.319   1.305   1.325   1.321   1.321   1.332   1.338   1.344   1.359   1.368   1.363   1.352   1.357   1.334
   132.29    1.347   1.346   1.363   1.370   1.356   1.347   1.354   1.341   1.345   1.335   1.337   1.333   1.331   1.337   1.307   1.304   1.306   1.328   1.329   1.319   1.316   1.327   1.342   1.327   1.337   1.334   1.344   1.367   1.370   1.363   1.355   1.345   1.332
   128.23    1.347   1.361   1.380   1.368   1.356   1.339   1.344   1.332   1.327   1.326   1.325   1.325   1.338   1.314   1.310   1.316   1.311   1.315   1.314   1.319   1.303   1.328   1.333   1.339   1.325   1.334   1.344   1.342   1.361   1.363   1.367   1.367   1.338
   124.16    1.351   1.342   1.371   1.372   1.364   1.367   1.343   1.328   1.313   1.326   1.312   1.311   1.299   1.313   1.309   1.324   1.322   1.311   1.318   1.320   1.337   1.354   1.348   1.335   1.333   1.345   1.346   1.340   1.351   1.361   1.363   1.354   1.349
   120.10    1.346   1.332   1.357   1.363   1.343   1.357   1.359   1.337   1.309   1.326   1.315   1.300   1.310   1.303   1.325   1.336   1.340   1.328   1.312   1.338   1.338   1.349   1.360   1.363   1.359   1.359   1.349   1.357   1.343   1.356   1.359   1.351   1.351
   116.04    1.329   1.322   1.342   1.354   1.361   1.367   1.360   1.348   1.326   1.313   1.326   1.318   1.302   1.301   1.308   1.322   1.335   1.338   1.329   1.340   1.347   1.344   1.357   1.362   1.364   1.367   1.373   1.361   1.350   1.353   1.362   1.345   1.352
   111.98    1.314   1.321   1.335   1.344   1.368   1.354   1.354   1.343   1.350   1.325   1.323   1.315   1.313   1.309   1.318   1.318   1.323   1.336   1.325   1.329   1.340   1.341   1.349   1.342   1.348   1.358   1.353   1.359   1.365   1.367   1.366   1.356   1.375
   107.91    1.327   1.302   1.319   1.333   1.361   1.354   1.336   1.349   1.333   1.337   1.311   1.317   1.325   1.339   1.315   1.326   1.320   1.321   1.310   1.314   1.328   1.325   1.333   1.340   1.343   1.365   1.342   1.359   1.349   1.354   1.338   1.372   1.376
   103.85    1.326   1.328   1.322   1.327   1.336   1.351   1.354   1.354   1.354   1.356   1.339   1.331   1.329   1.328   1.317   1.318   1.325   1.322   1.309   1.318   1.325   1.342   1.332   1.338   1.343   1.348   1.331   1.347   1.341   1.343   1.343   1.354   1.362
    99.79    1.325   1.334   1.322   1.351   1.349   1.351   1.355   1.345   1.344   1.350   1.331   1.316   1.324   1.332   1.315   1.315   1.335   1.328   1.327   1.336   1.353   1.342   1.343   1.337   1.341   1.337   1.331   1.357   1.343   1.345   1.337   1.336   1.360
    95.73    1.338   1.331   1.331   1.336   1.331   1.352   1.355   1.347   1.347   1.333   1.342   1.325   1.311   1.322   1.326   1.324   1.322   1.329   1.344   1.348   1.348   1.337   1.342   1.335   1.326   1.318   1.339   1.354   1.342   1.361   1.341   1.331   1.354
    91.66    1.331   1.318   1.345   1.354   1.359   1.347   1.343   1.356   1.334   1.328   1.324   1.313   1.319   1.325   1.330   1.320   1.322   1.329   1.327   1.329   1.347   1.329   1.346   1.350   1.331   1.323   1.330   1.341   1.335   1.350   1.346   1.361   1.343
    87.60    1.320   1.317   1.340   1.348   1.349   1.338   1.344   1.340   1.331   1.316   1.325   1.319   1.333   1.320   1.313   1.310   1.326   1.341   1.320   1.340   1.337   1.349   1.355   1.340   1.330   1.321   1.333   1.335   1.345   1.339   1.351   1.348   1.340
    83.54    1.326   1.329   1.335   1.356   1.343   1.329   1.318   1.342   1.311   1.316   1.317   1.335   1.337   1.340   1.328   1.307   1.316   1.326   1.315   1.336   1.328   1.332   1.345   1.347   1.327   1.327   1.357   1.343   1.349   1.348   1.358   1.348   1.351
    79.48    1.328   1.335   1.330   1.336   1.322   1.320   1.325   1.333   1.328   1.328   1.339   1.340   1.340   1.328   1.329   1.291   1.305   1.301   1.318   1.324   1.323   1.327   1.340   1.360   1.359   1.344   1.364   1.351   1.339   1.337   1.355   1.350   1.336
    75.41    1.333   1.328   1.337   1.336   1.312   1.304   1.312   1.319   1.325   1.324   1.346   1.345   1.342   1.337   1.332   1.324   1.302   1.308   1.301   1.298   1.300   1.336   1.341   1.346   1.351   1.356   1.363   1.369   1.337   1.323   1.337   1.341   1.349
    71.35    1.320   1.318   1.328   1.326   1.312   1.303   1.315   1.311   1.319   1.320   1.319   1.323   1.319   1.331   1.329   1.311   1.300   1.291   1.312   1.308   1.325   1.327   1.341   1.337   1.340   1.358   1.363   1.361   1.363   1.336   1.334   1.346   1.328
    67.29    1.315   1.320   1.318   1.325   1.325   1.323   1.332   1.316   1.325   1.320   1.328   1.313   1.310   1.327   1.309   1.296   1.292   1.288   1.285   1.295   1.315   1.317   1.324   1.333   1.329   1.337   1.352   1.336   1.348   1.340   1.340   1.328   1.319
    63.23    1.328   1.302   1.306   1.335   1.328   1.320   1.329   1.321   1.331   1.330   1.332   1.312   1.319   1.311   1.296   1.296   1.300   1.295   1.298   1.305   1.328   1.328   1.323   1.326   1.333   1.326   1.341   1.330   1.332   1.337   1.321   1.329   1.318
    59.16    1.327   1.319   1.324   1.317   1.330   1.321   1.332   1.308   1.307   1.335   1.332   1.328   1.305   1.294   1.307   1.307   1.294   1.304   1.300   1.329   1.327   1.328   1.316   1.318   1.325   1.319   1.339   1.330   1.317   1.337   1.332   1.325   1.318
    55.10    1.340   1.331   1.329   1.323   1.322   1.328   1.329   1.308   1.322   1.340   1.337   1.313   1.302   1.309   1.296   1.294   1.294   1.315   1.314   1.332   1.331   1.332   1.313   1.312   1.321   1.326   1.323   1.312   1.329   1.333   1.319   1.322   1.329
    51.04    1.323   1.333   1.327   1.322   1.323   1.317   1.321   1.322   1.322   1.317   1.327   1.312   1.296   1.312   1.313   1.286   1.307   1.320   1.308   1.315   1.321   1.316   1.306   1.311   1.300   1.310   1.302   1.314   1.322   1.317   1.322   1.339   1.325
    46.98    1.311   1.316   1.320   1.331   1.326   1.316   1.316   1.307   1.313   1.316   1.311   1.313   1.322   1.305   1.306   1.293   1.309   1.314   1.317   1.326   1.310   1.317   1.327   1.309   1.315   1.321   1.310   1.321   1.312   1.308   1.331   1.327   1.327
    42.91    1.317   1.320   1.325   1.339   1.322   1.320   1.308   1.313   1.325   1.318   1.314   1.315   1.320   1.318   1.302   1.313   1.323   1.312   1.303   1.303   1.316   1.315   1.320   1.312   1.317   1.318   1.325   1.317   1.327   1.308   1.312   1.308   1.330
    38.85    1.323   1.305   1.315   1.314   1.313   1.298   1.310   1.321   1.324   1.306   1.318   1.304   1.320   1.325   1.324   1.330   1.337   1.328   1.320   1.315   1.322   1.326   1.313   1.324   1.322   1.342   1.337   1.326   1.325   1.327   1.317   1.320   1.336
    34.79    1.320   1.318   1.317   1.310   1.325   1.306   1.314   1.317   1.316   1.330   1.321   1.316   1.314   1.325   1.316   1.317   1.328   1.333   1.320   1.321   1.325   1.324   1.329   1.328   1.327   1.346   1.338   1.335   1.345   1.334   1.338   1.329   1.326
    30.73    1.310   1.325   1.312   1.319   1.320   1.322   1.319   1.323   1.324   1.328   1.317   1.315   1.321   1.320   1.317   1.324   1.316   1.308   1.314   1.321   1.314   1.321   1.319   1.331   1.328   1.331   1.334   1.334   1.330   1.323   1.335   1.326   1.330
    26.66    1.307   1.316   1.325   1.309   1.316   1.325   1.314   1.318   1.333   1.326   1.321   1.311   1.318   1.316   1.315   1.323   1.314   1.322   1.315   1.320   1.316   1.307   1.309   1.322   1.330   1.331   1.332   1.322   1.304   1.320   1.327   1.331   1.309
    22.60    1.310   1.305   1.305   1.307   1.312   1.319   1.326   1.323   1.321   1.324   1.324   1.315   1.308   1.318   1.321   1.318   1.314   1.310   1.311   1.314   1.319   1.311   1.310   1.309   1.318   1.324   1.335   1.317   1.319   1.325   1.317   1.311   1.308

   Mean standard deviation across all grid points:
      u component:    2.189 m/s
      v component:    1.688 m/s
      w component:    1.331 m/s


U-component (X) statistics from the hub grid point:

   Mean =  20.0000 m/s
   TI   =  11.2650 %

Nyquist frequency of turbulent wind field =        10.000 Hz


Processing complete.  2923.4 CPU seconds used.
