
This summary file was generated by TurbSim (v1.06.00, 21-Sep-2012) on 24-Sep-2020 at 18:33:00.


Runtime Options:

  65432154  Random seed #1
    RANLUX  Type of random number generator
         F  Output binary HH turbulence parameters?
         F  Output formatted turbulence parameters?
         F  Output AeroDyn HH files?
         T  Output AeroDyn FF files?
         F  Output BLADED FF files?
         T  Output tower data?
         F  Output formatted FF files?
         F  Output coherent turbulence time step file?
         T  Clockwise rotation when looking downwind?
 0 -  NONE  IEC turbulence models scaled to exact specified standard deviation


Turbine/Model Specifications:

        33  Vertical grid-point matrix dimension
        33  Horizontal grid-point matrix dimension
     0.050  Time step [seconds]
  3610.000  Analysis time [seconds]
  3610.000  Usable output time [seconds]
    87.600  Hub height [m]
   130.000  Grid height [m]
   130.000  Grid width [m]
     0.000  Vertical flow angle [degrees]
     0.000  Horizontal flow angle [degrees]


Meteorological Boundary Conditions:

    SMOOTH  RISO Smooth Terrain spectral model
       N/A  IEC standard
       N/A  IEC turbulence characteristic
       N/A  IEC turbulence type
       N/A  IEC Extreme Turbulence Model (ETM) "c" parameter [m/s]
       IEC  Wind profile type
    87.600  Reference height [m]
     8.000  Reference wind speed [m/s]
       N/A  Jet height [m]
     0.143  Power law exponent
     0.010  Surface roughness length [m]


Non-IEC Meteorological Boundary Conditions:

    45.000  Site latitude [degrees]
     0.050  Gradient Richardson number
     0.340  Friction or shear velocity [m/s]
       N/A  Mixing layer depth [m]
    -0.116  Mean hub u'w' Reynolds stress
       N/A  Mean hub u'v' Reynolds stress
       N/A  Mean hub v'w' Reynolds stress
(    8.000,  0.00    )  u-component coherence parameters
(    6.000,  0.00    )  v-component coherence parameters
(    6.000,  0.00    )  w-component coherence parameters
     0.000  Coherence exponent


You have requested that the following file(s) be generated:

   unsteady_tmp_8.bts (AeroDyn/TurbSim full-field wind file)


Turbulence Simulation Scaling Parameter Summary:

   Turbulence model used                            =  RISO Smooth Terrain
   Gradient Richardson number                       =    0.050
   Monin-Obukhov (M-O) z/L parameter                =    0.067
   Monin-Obukhov (M-O) length scale                 = 1314.000 m
   Mean wind speed at hub height                    =    8.000 m/s

   Wind profile type                                =  Power law on rotor disk, logarithmic elsewhere
   Power law exponent                               =    0.143
   Mean shear across rotor disk                     =    0.015 (m/s)/m
   Assumed rotor diameter                           =  130.000 m
   Surface roughness length                         =    0.010 m

   Number of time steps in the FFT                  =    72576
   Number of time steps output                      =    72525


Mean Flow Angles:

   Vertical   =   0.0 degrees
   Horizontal =   0.0 degrees

Mean Wind Speed Profile:

   Height    Wind Speed   Horizontal Angle  U-comp (X)   V-comp (Y)   W-comp (Z)
     (m)        (m/s)         (degrees)       (m/s)        (m/s)        (m/s)   
   ------    ----------   ----------------  ----------   ----------   ----------
    152.6        8.49            0.00          8.49         0.00         0.00
    148.5        8.63            0.00          8.63         0.00         0.00
    144.5        8.59            0.00          8.59         0.00         0.00
    140.4        8.56            0.00          8.56         0.00         0.00
    136.4        8.52            0.00          8.52         0.00         0.00
    132.3        8.49            0.00          8.49         0.00         0.00
    128.2        8.45            0.00          8.45         0.00         0.00
    124.2        8.41            0.00          8.41         0.00         0.00
    120.1        8.37            0.00          8.37         0.00         0.00
    116.0        8.33            0.00          8.33         0.00         0.00
    112.0        8.29            0.00          8.29         0.00         0.00
    107.9        8.24            0.00          8.24         0.00         0.00
    103.9        8.20            0.00          8.20         0.00         0.00
     99.8        8.15            0.00          8.15         0.00         0.00
     95.7        8.10            0.00          8.10         0.00         0.00
     91.7        8.05            0.00          8.05         0.00         0.00
     87.6        8.00            0.00          8.00         0.00         0.00
     83.5        7.95            0.00          7.95         0.00         0.00
     79.5        7.89            0.00          7.89         0.00         0.00
     75.4        7.83            0.00          7.83         0.00         0.00
     71.4        7.77            0.00          7.77         0.00         0.00
     67.3        7.70            0.00          7.70         0.00         0.00
     63.2        7.64            0.00          7.64         0.00         0.00
     59.2        7.56            0.00          7.56         0.00         0.00
     55.1        7.49            0.00          7.49         0.00         0.00
     51.0        7.41            0.00          7.41         0.00         0.00
     47.0        7.32            0.00          7.32         0.00         0.00
     42.9        7.22            0.00          7.22         0.00         0.00
     38.9        7.12            0.00          7.12         0.00         0.00
     34.8        7.01            0.00          7.01         0.00         0.00
     30.7        6.89            0.00          6.89         0.00         0.00
     26.7        6.75            0.00          6.75         0.00         0.00
     22.6        6.59            0.00          6.59         0.00         0.00
     18.5        6.63            0.00          6.63         0.00         0.00
     14.5        6.41            0.00          6.41         0.00         0.00
     10.4        6.12            0.00          6.12         0.00         0.00
      6.4        5.69            0.00          5.69         0.00         0.00
      2.3        4.79            0.00          4.79         0.00         0.00


Harvested Random Seeds after Generation of the Random Numbers:

    106611632 K1
            1 K2


Scaling statistics from the hub grid point:

   Cross-Component  Scaling Factor
   ---------------  --------------
   u'w'               -0.11972E+00
   u'v'                0.00000E+00
   v'w'                0.00000E+00


Hub-Height Simulated Turbulence Statistical Summary:

   Type of Wind        Min (m/s)   Mean (m/s)    Max (m/s)  Sigma (m/s)       TI (%)
   ----------------    ---------   ----------    ---------  -----------       ------
   Longitudinal (u)         4.76         8.00        10.86        0.889       11.107
   Lateral (v)             -2.78         0.00         2.41        0.676        8.448
   Vertical (w)            -2.19         0.00         1.97        0.544        6.794
   U component              4.76         8.00        10.86        0.889       11.107
   V component             -2.78         0.00         2.41        0.676        8.448
   W component             -2.19         0.00         1.97        0.544        6.794
   Horizontal (U&V)         4.77         8.03        10.88        0.888       11.064
   Total                    4.78         8.05        10.89        0.886       11.009

                       Min Reynolds     Mean Reynolds    Max Reynolds    Correlation
   Product             Stress (m/s)^2   Stress (m/s)^2   Stress (m/s)^2  Coefficient
   ----------------    --------------   --------------   --------------  -----------
   u'w'                     -4.395            -0.116             2.712        -0.239
   u'v'                     -4.048            -0.032             4.111        -0.054
   v'w'                     -2.791             0.004             2.764         0.011


   Friction Velocity (Ustar)  =      0.340 m/s
   Maximum Instantaneous TKE  =      5.391 (m/s)^2
   Maximum Instantaneous CTKE =      2.510 (m/s)^2


Grid Point Variance Summary:

   Y-coord  -65.00  -60.94  -56.88  -52.81  -48.75  -44.69  -40.62  -36.56  -32.50  -28.44  -24.38  -20.31  -16.25  -12.19   -8.12   -4.06    0.00    4.06    8.12   12.19   16.25   20.31   24.38   28.44   32.50   36.56   40.62   44.69   48.75   52.81   56.88   60.94   65.00

   Height   Standard deviation at grid points for the u component:
   152.60    0.899   0.890   0.913   0.905   0.916   0.944   0.938   0.931   0.942   0.936   0.928   0.913   0.928   0.896   0.896   0.894   0.891   0.908   0.916   0.907   0.899   0.883   0.874   0.874   0.865   0.867   0.867   0.866   0.842   0.837   0.833   0.826   0.826
   148.54    0.896   0.902   0.920   0.907   0.935   0.962   0.955   0.953   0.953   0.943   0.955   0.945   0.942   0.913   0.916   0.894   0.904   0.908   0.922   0.908   0.907   0.900   0.895   0.868   0.867   0.869   0.861   0.854   0.838   0.824   0.820   0.813   0.830
   144.48    0.890   0.911   0.912   0.902   0.932   0.961   0.959   0.968   0.961   0.964   0.963   0.964   0.926   0.940   0.930   0.920   0.906   0.906   0.908   0.916   0.913   0.920   0.894   0.874   0.856   0.859   0.876   0.854   0.838   0.826   0.823   0.833   0.827
   140.41    0.899   0.927   0.924   0.904   0.931   0.969   0.977   0.968   0.977   0.965   0.963   0.951   0.946   0.937   0.939   0.922   0.921   0.914   0.907   0.904   0.915   0.898   0.879   0.875   0.868   0.875   0.855   0.856   0.842   0.831   0.844   0.857   0.833
   136.35    0.900   0.913   0.925   0.917   0.944   0.958   0.970   0.985   0.978   0.957   0.948   0.957   0.953   0.941   0.937   0.917   0.914   0.919   0.915   0.918   0.914   0.899   0.875   0.861   0.864   0.879   0.856   0.853   0.853   0.840   0.841   0.856   0.854
   132.29    0.905   0.912   0.932   0.920   0.946   0.969   0.973   0.974   0.969   0.948   0.960   0.946   0.953   0.934   0.934   0.917   0.911   0.916   0.920   0.910   0.900   0.890   0.867   0.863   0.869   0.870   0.849   0.850   0.849   0.840   0.839   0.843   0.852
   128.23    0.920   0.920   0.928   0.939   0.959   0.980   0.988   0.969   0.962   0.949   0.949   0.947   0.948   0.939   0.927   0.910   0.911   0.912   0.920   0.923   0.913   0.893   0.879   0.864   0.863   0.859   0.860   0.849   0.848   0.843   0.833   0.843   0.843
   124.16    0.923   0.937   0.951   0.947   0.963   0.977   0.971   0.953   0.946   0.950   0.951   0.958   0.955   0.945   0.935   0.913   0.896   0.901   0.893   0.900   0.913   0.898   0.893   0.881   0.884   0.866   0.860   0.833   0.842   0.835   0.841   0.858   0.853
   120.10    0.927   0.927   0.931   0.948   0.944   0.952   0.953   0.950   0.945   0.942   0.940   0.962   0.942   0.939   0.920   0.906   0.912   0.897   0.910   0.896   0.907   0.892   0.884   0.877   0.880   0.866   0.854   0.837   0.846   0.854   0.848   0.860   0.875
   116.04    0.914   0.922   0.923   0.941   0.946   0.941   0.952   0.940   0.945   0.937   0.938   0.929   0.940   0.937   0.926   0.903   0.902   0.899   0.900   0.903   0.900   0.890   0.875   0.871   0.868   0.875   0.856   0.851   0.856   0.840   0.849   0.844   0.875
   111.98    0.905   0.911   0.915   0.922   0.924   0.931   0.923   0.937   0.930   0.922   0.923   0.921   0.941   0.939   0.923   0.911   0.908   0.903   0.912   0.918   0.914   0.901   0.868   0.863   0.868   0.867   0.857   0.859   0.858   0.862   0.865   0.865   0.883
   107.91    0.892   0.898   0.917   0.914   0.907   0.909   0.907   0.919   0.932   0.912   0.906   0.916   0.925   0.939   0.931   0.912   0.911   0.894   0.914   0.927   0.919   0.905   0.878   0.872   0.864   0.866   0.856   0.865   0.877   0.871   0.864   0.866   0.872
   103.85    0.915   0.900   0.914   0.899   0.922   0.909   0.911   0.904   0.902   0.909   0.896   0.915   0.908   0.930   0.919   0.914   0.917   0.902   0.914   0.932   0.921   0.916   0.889   0.890   0.869   0.874   0.877   0.872   0.865   0.869   0.858   0.861   0.874
    99.79    0.901   0.904   0.903   0.914   0.912   0.918   0.910   0.895   0.886   0.889   0.887   0.911   0.915   0.918   0.908   0.891   0.903   0.882   0.909   0.916   0.908   0.899   0.903   0.877   0.870   0.863   0.891   0.879   0.856   0.851   0.852   0.862   0.876
    95.73    0.889   0.886   0.899   0.900   0.917   0.905   0.912   0.903   0.892   0.896   0.899   0.908   0.914   0.912   0.901   0.900   0.890   0.892   0.892   0.910   0.903   0.891   0.888   0.894   0.871   0.872   0.868   0.867   0.868   0.875   0.874   0.877   0.896
    91.66    0.881   0.880   0.889   0.897   0.907   0.902   0.906   0.905   0.887   0.892   0.888   0.910   0.924   0.913   0.907   0.901   0.883   0.887   0.878   0.902   0.899   0.896   0.891   0.902   0.886   0.890   0.874   0.865   0.869   0.869   0.885   0.895   0.910
    87.60    0.894   0.888   0.895   0.902   0.907   0.913   0.908   0.902   0.888   0.905   0.905   0.923   0.919   0.916   0.895   0.869   0.889   0.893   0.887   0.900   0.905   0.904   0.897   0.886   0.890   0.884   0.870   0.887   0.865   0.875   0.876   0.874   0.897
    83.54    0.905   0.884   0.897   0.912   0.900   0.911   0.895   0.892   0.877   0.881   0.894   0.900   0.898   0.908   0.910   0.894   0.904   0.899   0.905   0.899   0.912   0.892   0.891   0.894   0.892   0.887   0.868   0.869   0.864   0.858   0.867   0.881   0.892
    79.48    0.909   0.889   0.889   0.893   0.875   0.880   0.882   0.864   0.872   0.899   0.902   0.891   0.893   0.899   0.909   0.913   0.932   0.915   0.916   0.907   0.901   0.904   0.905   0.913   0.899   0.881   0.861   0.854   0.877   0.877   0.880   0.872   0.878
    75.41    0.909   0.893   0.899   0.888   0.883   0.861   0.872   0.874   0.869   0.897   0.893   0.906   0.893   0.896   0.911   0.920   0.910   0.912   0.909   0.912   0.897   0.894   0.897   0.894   0.870   0.867   0.867   0.862   0.884   0.875   0.862   0.878   0.897
    71.35    0.894   0.902   0.900   0.879   0.861   0.864   0.877   0.871   0.884   0.889   0.895   0.906   0.892   0.905   0.916   0.922   0.922   0.906   0.899   0.911   0.916   0.912   0.894   0.884   0.868   0.864   0.863   0.868   0.877   0.868   0.874   0.881   0.896
    67.29    0.892   0.899   0.890   0.891   0.882   0.884   0.875   0.894   0.877   0.888   0.885   0.890   0.892   0.896   0.896   0.913   0.915   0.916   0.920   0.909   0.927   0.901   0.880   0.879   0.871   0.880   0.877   0.877   0.897   0.878   0.870   0.875   0.904
    63.23    0.883   0.881   0.890   0.908   0.893   0.887   0.911   0.918   0.901   0.888   0.891   0.889   0.891   0.906   0.909   0.918   0.914   0.934   0.923   0.924   0.914   0.906   0.901   0.898   0.872   0.869   0.865   0.872   0.885   0.881   0.874   0.878   0.896
    59.16    0.888   0.897   0.893   0.917   0.900   0.890   0.908   0.906   0.905   0.896   0.908   0.906   0.893   0.898   0.896   0.899   0.921   0.937   0.924   0.910   0.914   0.904   0.880   0.895   0.887   0.885   0.872   0.872   0.864   0.877   0.868   0.854   0.872
    55.10    0.897   0.896   0.901   0.894   0.890   0.896   0.908   0.920   0.895   0.891   0.900   0.915   0.903   0.892   0.894   0.920   0.902   0.914   0.918   0.911   0.917   0.906   0.891   0.894   0.882   0.890   0.873   0.879   0.877   0.876   0.870   0.843   0.848
    51.04    0.910   0.907   0.903   0.896   0.886   0.903   0.919   0.900   0.886   0.887   0.890   0.908   0.908   0.907   0.912   0.920   0.909   0.913   0.907   0.894   0.916   0.890   0.895   0.887   0.893   0.876   0.890   0.889   0.900   0.880   0.864   0.853   0.856
    46.98    0.914   0.902   0.897   0.886   0.893   0.908   0.917   0.912   0.885   0.876   0.881   0.908   0.909   0.928   0.915   0.923   0.901   0.912   0.905   0.902   0.889   0.875   0.879   0.885   0.883   0.875   0.894   0.893   0.886   0.886   0.875   0.860   0.845
    42.91    0.921   0.896   0.894   0.890   0.910   0.887   0.896   0.888   0.876   0.887   0.900   0.901   0.926   0.905   0.915   0.913   0.904   0.893   0.895   0.892   0.890   0.883   0.885   0.880   0.883   0.889   0.895   0.901   0.878   0.876   0.872   0.873   0.867
    38.85    0.887   0.890   0.866   0.881   0.873   0.889   0.887   0.891   0.874   0.893   0.917   0.908   0.905   0.910   0.911   0.897   0.888   0.910   0.889   0.886   0.903   0.885   0.879   0.886   0.887   0.889   0.894   0.899   0.895   0.901   0.884   0.872   0.878
    34.79    0.880   0.871   0.879   0.875   0.862   0.866   0.872   0.881   0.875   0.891   0.894   0.926   0.915   0.895   0.915   0.914   0.908   0.917   0.894   0.884   0.902   0.893   0.899   0.894   0.887   0.881   0.896   0.890   0.894   0.894   0.875   0.878   0.855
    30.73    0.871   0.856   0.866   0.876   0.864   0.860   0.860   0.879   0.872   0.887   0.905   0.909   0.915   0.910   0.924   0.920   0.924   0.908   0.900   0.905   0.914   0.899   0.881   0.889   0.899   0.899   0.892   0.899   0.897   0.887   0.874   0.874   0.866
    26.66    0.896   0.877   0.872   0.875   0.879   0.857   0.866   0.886   0.891   0.890   0.906   0.900   0.914   0.915   0.914   0.912   0.912   0.901   0.897   0.896   0.908   0.905   0.905   0.896   0.890   0.911   0.908   0.904   0.890   0.884   0.881   0.893   0.880
    22.60    0.886   0.879   0.855   0.852   0.858   0.865   0.889   0.899   0.903   0.898   0.916   0.891   0.913   0.901   0.875   0.904   0.910   0.903   0.903   0.901   0.908   0.901   0.903   0.894   0.899   0.891   0.901   0.889   0.882   0.893   0.898   0.882   0.895

   Height   Standard deviation at grid points for the v component:
   152.60    0.652   0.641   0.644   0.641   0.649   0.642   0.642   0.646   0.659   0.664   0.668   0.672   0.664   0.668   0.652   0.649   0.651   0.654   0.657   0.662   0.668   0.667   0.652   0.646   0.656   0.664   0.660   0.663   0.657   0.645   0.644   0.652   0.654
   148.54    0.646   0.655   0.645   0.644   0.647   0.646   0.646   0.647   0.657   0.665   0.664   0.665   0.662   0.670   0.656   0.654   0.648   0.647   0.649   0.652   0.660   0.656   0.655   0.649   0.655   0.659   0.663   0.665   0.661   0.649   0.644   0.649   0.651
   144.48    0.656   0.661   0.653   0.653   0.646   0.653   0.652   0.652   0.663   0.665   0.650   0.654   0.660   0.664   0.649   0.634   0.637   0.647   0.639   0.645   0.654   0.647   0.644   0.647   0.647   0.663   0.664   0.660   0.659   0.655   0.646   0.646   0.647
   140.41    0.657   0.663   0.664   0.658   0.659   0.651   0.661   0.655   0.666   0.659   0.663   0.655   0.656   0.659   0.639   0.633   0.651   0.647   0.638   0.647   0.656   0.656   0.654   0.650   0.656   0.663   0.664   0.663   0.664   0.651   0.652   0.651   0.630
   136.35    0.668   0.665   0.658   0.656   0.657   0.667   0.673   0.678   0.663   0.659   0.664   0.653   0.658   0.659   0.645   0.635   0.631   0.646   0.649   0.645   0.648   0.651   0.653   0.658   0.650   0.655   0.667   0.666   0.659   0.649   0.647   0.652   0.636
   132.29    0.667   0.668   0.666   0.664   0.656   0.671   0.671   0.672   0.669   0.668   0.669   0.664   0.657   0.662   0.658   0.645   0.632   0.643   0.648   0.665   0.654   0.659   0.657   0.665   0.652   0.646   0.663   0.657   0.655   0.656   0.652   0.657   0.645
   128.23    0.669   0.682   0.678   0.683   0.667   0.662   0.661   0.674   0.673   0.668   0.670   0.677   0.665   0.664   0.671   0.653   0.647   0.640   0.643   0.656   0.650   0.661   0.643   0.646   0.640   0.648   0.660   0.653   0.655   0.650   0.655   0.652   0.638
   124.16    0.668   0.680   0.680   0.673   0.672   0.671   0.658   0.661   0.678   0.681   0.681   0.674   0.672   0.674   0.670   0.661   0.653   0.647   0.634   0.652   0.658   0.647   0.639   0.640   0.650   0.648   0.645   0.656   0.656   0.661   0.664   0.650   0.638
   120.10    0.679   0.683   0.687   0.676   0.681   0.670   0.660   0.676   0.675   0.686   0.674   0.682   0.687   0.673   0.670   0.665   0.647   0.642   0.646   0.660   0.659   0.662   0.643   0.642   0.646   0.638   0.637   0.645   0.656   0.655   0.661   0.637   0.644
   116.04    0.685   0.688   0.677   0.688   0.678   0.680   0.679   0.679   0.678   0.674   0.681   0.672   0.670   0.677   0.677   0.671   0.655   0.655   0.653   0.653   0.656   0.651   0.649   0.637   0.636   0.643   0.644   0.641   0.642   0.640   0.645   0.641   0.635
   111.98    0.683   0.685   0.681   0.696   0.696   0.679   0.683   0.680   0.675   0.679   0.674   0.677   0.680   0.676   0.677   0.671   0.667   0.667   0.663   0.653   0.651   0.641   0.642   0.643   0.639   0.648   0.648   0.631   0.633   0.638   0.642   0.645   0.637
   107.91    0.682   0.674   0.676   0.681   0.703   0.695   0.693   0.685   0.677   0.681   0.680   0.672   0.671   0.682   0.680   0.671   0.664   0.659   0.663   0.654   0.646   0.640   0.637   0.642   0.648   0.643   0.643   0.635   0.640   0.650   0.655   0.645   0.647
   103.85    0.667   0.661   0.669   0.678   0.685   0.698   0.697   0.681   0.681   0.675   0.674   0.671   0.667   0.681   0.672   0.666   0.663   0.659   0.655   0.640   0.643   0.628   0.643   0.647   0.650   0.643   0.643   0.648   0.644   0.650   0.654   0.650   0.646
    99.79    0.670   0.663   0.665   0.683   0.682   0.680   0.681   0.679   0.671   0.678   0.672   0.673   0.667   0.670   0.671   0.658   0.660   0.668   0.652   0.644   0.634   0.641   0.648   0.654   0.651   0.646   0.655   0.656   0.649   0.647   0.652   0.651   0.658
    95.73    0.666   0.667   0.679   0.680   0.685   0.684   0.682   0.679   0.674   0.668   0.679   0.667   0.672   0.666   0.667   0.671   0.670   0.658   0.659   0.658   0.645   0.639   0.645   0.657   0.652   0.652   0.656   0.655   0.659   0.665   0.656   0.657   0.649
    91.66    0.679   0.680   0.681   0.681   0.688   0.674   0.679   0.685   0.683   0.686   0.672   0.685   0.682   0.670   0.673   0.670   0.665   0.671   0.672   0.662   0.657   0.657   0.658   0.665   0.660   0.654   0.657   0.660   0.657   0.662   0.658   0.662   0.644
    87.60    0.681   0.676   0.685   0.685   0.689   0.679   0.675   0.687   0.684   0.679   0.681   0.688   0.683   0.684   0.675   0.676   0.676   0.677   0.671   0.666   0.668   0.664   0.662   0.665   0.666   0.662   0.664   0.671   0.663   0.662   0.653   0.651   0.651
    83.54    0.666   0.676   0.690   0.687   0.681   0.677   0.668   0.678   0.678   0.678   0.674   0.676   0.683   0.680   0.688   0.694   0.681   0.681   0.672   0.671   0.668   0.660   0.667   0.656   0.670   0.670   0.665   0.668   0.667   0.659   0.658   0.663   0.661
    79.48    0.663   0.671   0.681   0.683   0.682   0.689   0.683   0.673   0.668   0.679   0.674   0.668   0.676   0.674   0.686   0.684   0.678   0.675   0.678   0.672   0.668   0.664   0.650   0.657   0.668   0.663   0.666   0.665   0.661   0.667   0.670   0.671   0.653
    75.41    0.674   0.681   0.671   0.672   0.683   0.685   0.676   0.673   0.666   0.668   0.670   0.673   0.680   0.679   0.683   0.690   0.679   0.681   0.669   0.659   0.652   0.656   0.650   0.650   0.662   0.662   0.666   0.665   0.654   0.661   0.674   0.676   0.662
    71.35    0.676   0.675   0.667   0.678   0.676   0.677   0.667   0.665   0.659   0.672   0.690   0.678   0.677   0.686   0.684   0.684   0.672   0.675   0.655   0.648   0.649   0.647   0.642   0.653   0.663   0.666   0.665   0.658   0.662   0.664   0.660   0.665   0.668
    67.29    0.680   0.670   0.671   0.679   0.673   0.667   0.674   0.674   0.677   0.680   0.685   0.692   0.684   0.679   0.684   0.683   0.690   0.677   0.661   0.647   0.633   0.642   0.646   0.655   0.647   0.657   0.661   0.652   0.654   0.656   0.660   0.661   0.665
    63.23    0.677   0.670   0.671   0.666   0.670   0.681   0.675   0.687   0.692   0.682   0.684   0.687   0.683   0.686   0.685   0.683   0.691   0.681   0.674   0.659   0.649   0.655   0.662   0.663   0.662   0.663   0.651   0.652   0.654   0.658   0.657   0.662   0.665
    59.16    0.677   0.675   0.674   0.663   0.671   0.686   0.684   0.690   0.688   0.686   0.686   0.677   0.684   0.685   0.680   0.687   0.689   0.684   0.678   0.668   0.662   0.658   0.670   0.665   0.655   0.666   0.657   0.646   0.653   0.663   0.674   0.669   0.664
    55.10    0.680   0.680   0.672   0.677   0.680   0.687   0.688   0.683   0.681   0.671   0.672   0.679   0.685   0.685   0.685   0.684   0.674   0.684   0.680   0.676   0.671   0.674   0.672   0.672   0.667   0.662   0.661   0.661   0.645   0.663   0.664   0.663   0.661
    51.04    0.682   0.687   0.668   0.672   0.679   0.679   0.682   0.690   0.673   0.682   0.679   0.682   0.689   0.684   0.692   0.679   0.679   0.678   0.680   0.672   0.670   0.674   0.671   0.669   0.674   0.669   0.667   0.661   0.657   0.665   0.663   0.662   0.666
    46.98    0.680   0.682   0.664   0.663   0.664   0.663   0.673   0.675   0.676   0.675   0.682   0.677   0.682   0.680   0.682   0.677   0.684   0.679   0.674   0.682   0.681   0.680   0.674   0.669   0.673   0.678   0.673   0.665   0.657   0.653   0.666   0.655   0.660
    42.91    0.675   0.665   0.663   0.654   0.662   0.665   0.670   0.680   0.687   0.680   0.680   0.679   0.683   0.683   0.680   0.675   0.676   0.685   0.686   0.680   0.684   0.688   0.676   0.667   0.674   0.677   0.665   0.666   0.663   0.666   0.655   0.667   0.665
    38.85    0.668   0.662   0.653   0.658   0.662   0.670   0.676   0.672   0.687   0.684   0.681   0.673   0.686   0.679   0.681   0.684   0.681   0.680   0.682   0.674   0.680   0.689   0.681   0.670   0.671   0.665   0.664   0.664   0.669   0.665   0.669   0.676   0.666
    34.79    0.674   0.668   0.652   0.659   0.650   0.667   0.667   0.675   0.684   0.684   0.680   0.675   0.681   0.674   0.678   0.681   0.669   0.684   0.683   0.685   0.677   0.681   0.678   0.671   0.663   0.665   0.669   0.672   0.669   0.666   0.675   0.678   0.671
    30.73    0.668   0.665   0.660   0.650   0.662   0.662   0.673   0.674   0.679   0.682   0.682   0.678   0.676   0.672   0.667   0.676   0.674   0.669   0.674   0.691   0.692   0.695   0.674   0.678   0.676   0.672   0.664   0.674   0.669   0.670   0.665   0.668   0.670
    26.66    0.665   0.667   0.667   0.663   0.655   0.664   0.668   0.670   0.675   0.691   0.676   0.662   0.678   0.679   0.680   0.675   0.667   0.675   0.675   0.681   0.686   0.688   0.681   0.678   0.679   0.674   0.670   0.664   0.668   0.663   0.660   0.659   0.663
    22.60    0.673   0.671   0.672   0.669   0.656   0.662   0.667   0.670   0.669   0.672   0.669   0.672   0.672   0.679   0.676   0.674   0.672   0.683   0.680   0.685   0.680   0.681   0.669   0.668   0.671   0.678   0.679   0.667   0.669   0.668   0.657   0.653   0.650

   Height   Standard deviation at grid points for the w component:
   152.60    0.514   0.513   0.514   0.523   0.526   0.527   0.529   0.528   0.524   0.520   0.522   0.517   0.528   0.529   0.543   0.549   0.541   0.548   0.554   0.552   0.562   0.560   0.563   0.560   0.549   0.553   0.548   0.548   0.550   0.548   0.542   0.540   0.541
   148.54    0.510   0.510   0.523   0.530   0.526   0.532   0.536   0.530   0.522   0.518   0.523   0.518   0.528   0.532   0.540   0.542   0.544   0.542   0.548   0.546   0.555   0.558   0.559   0.549   0.549   0.547   0.539   0.546   0.550   0.548   0.542   0.543   0.541
   144.48    0.512   0.519   0.522   0.526   0.517   0.534   0.529   0.531   0.526   0.519   0.520   0.520   0.521   0.527   0.534   0.544   0.549   0.544   0.538   0.542   0.545   0.549   0.558   0.554   0.546   0.543   0.545   0.544   0.549   0.549   0.542   0.539   0.543
   140.41    0.516   0.514   0.517   0.520   0.523   0.535   0.534   0.538   0.527   0.523   0.517   0.524   0.516   0.530   0.539   0.544   0.545   0.539   0.533   0.543   0.550   0.550   0.553   0.551   0.552   0.550   0.544   0.538   0.537   0.536   0.534   0.541   0.534
   136.35    0.515   0.512   0.522   0.512   0.527   0.532   0.535   0.534   0.535   0.529   0.527   0.523   0.531   0.529   0.531   0.528   0.541   0.545   0.543   0.536   0.544   0.554   0.554   0.549   0.545   0.545   0.542   0.528   0.534   0.535   0.532   0.529   0.530
   132.29    0.510   0.518   0.522   0.520   0.526   0.526   0.522   0.528   0.531   0.532   0.535   0.528   0.528   0.521   0.527   0.532   0.533   0.544   0.538   0.539   0.537   0.550   0.548   0.545   0.545   0.542   0.536   0.531   0.537   0.535   0.525   0.525   0.530
   128.23    0.526   0.521   0.521   0.525   0.523   0.520   0.525   0.523   0.529   0.537   0.534   0.531   0.524   0.519   0.516   0.529   0.536   0.541   0.539   0.534   0.533   0.541   0.548   0.547   0.548   0.539   0.534   0.534   0.533   0.528   0.528   0.526   0.524
   124.16    0.530   0.523   0.525   0.518   0.515   0.519   0.517   0.521   0.531   0.535   0.534   0.528   0.523   0.523   0.526   0.531   0.533   0.535   0.534   0.533   0.542   0.543   0.545   0.541   0.536   0.538   0.537   0.532   0.532   0.536   0.533   0.529   0.527
   120.10    0.529   0.530   0.530   0.525   0.525   0.514   0.522   0.531   0.531   0.540   0.536   0.538   0.528   0.535   0.534   0.543   0.536   0.541   0.539   0.530   0.542   0.547   0.550   0.547   0.541   0.532   0.533   0.524   0.530   0.534   0.531   0.523   0.519
   116.04    0.536   0.527   0.532   0.528   0.519   0.518   0.531   0.535   0.535   0.540   0.536   0.538   0.540   0.537   0.533   0.534   0.540   0.539   0.541   0.541   0.548   0.548   0.542   0.545   0.541   0.533   0.529   0.527   0.534   0.528   0.526   0.526   0.528
   111.98    0.542   0.534   0.530   0.529   0.527   0.528   0.535   0.541   0.538   0.529   0.527   0.544   0.542   0.532   0.533   0.535   0.535   0.540   0.548   0.549   0.548   0.551   0.551   0.535   0.536   0.536   0.533   0.530   0.526   0.524   0.529   0.537   0.533
   107.91    0.539   0.540   0.535   0.531   0.526   0.534   0.536   0.540   0.537   0.528   0.527   0.541   0.546   0.539   0.534   0.534   0.536   0.540   0.545   0.547   0.545   0.552   0.558   0.550   0.542   0.545   0.537   0.527   0.527   0.525   0.524   0.531   0.536
   103.85    0.541   0.542   0.539   0.536   0.541   0.533   0.540   0.542   0.531   0.530   0.526   0.538   0.544   0.535   0.538   0.535   0.539   0.544   0.542   0.552   0.555   0.554   0.561   0.559   0.548   0.544   0.531   0.519   0.526   0.525   0.522   0.527   0.526
    99.79    0.541   0.541   0.536   0.533   0.537   0.538   0.546   0.541   0.532   0.534   0.535   0.535   0.538   0.541   0.537   0.542   0.541   0.543   0.544   0.553   0.547   0.559   0.565   0.560   0.552   0.545   0.534   0.522   0.526   0.526   0.523   0.529   0.520
    95.73    0.545   0.536   0.532   0.536   0.537   0.539   0.547   0.542   0.537   0.530   0.537   0.539   0.548   0.552   0.541   0.542   0.535   0.539   0.536   0.539   0.545   0.553   0.562   0.553   0.549   0.544   0.536   0.532   0.523   0.524   0.516   0.521   0.514
    91.66    0.540   0.532   0.536   0.540   0.540   0.540   0.542   0.539   0.536   0.534   0.534   0.538   0.548   0.560   0.549   0.540   0.542   0.535   0.540   0.554   0.552   0.551   0.551   0.547   0.541   0.541   0.537   0.525   0.518   0.512   0.516   0.511   0.524
    87.60    0.535   0.534   0.536   0.541   0.543   0.538   0.535   0.538   0.533   0.530   0.534   0.536   0.539   0.547   0.543   0.541   0.544   0.545   0.539   0.542   0.547   0.545   0.547   0.538   0.539   0.532   0.520   0.518   0.518   0.514   0.522   0.516   0.517
    83.54    0.537   0.541   0.538   0.544   0.551   0.541   0.532   0.536   0.526   0.535   0.532   0.527   0.535   0.542   0.538   0.539   0.553   0.551   0.544   0.539   0.548   0.547   0.550   0.545   0.534   0.524   0.524   0.517   0.517   0.521   0.515   0.505   0.520
    79.48    0.543   0.542   0.540   0.540   0.549   0.541   0.546   0.537   0.537   0.531   0.532   0.540   0.528   0.536   0.532   0.541   0.546   0.543   0.540   0.536   0.536   0.538   0.543   0.534   0.527   0.521   0.527   0.516   0.518   0.517   0.512   0.506   0.511
    75.41    0.543   0.535   0.539   0.540   0.550   0.545   0.550   0.542   0.541   0.535   0.530   0.536   0.532   0.528   0.533   0.538   0.538   0.535   0.537   0.534   0.531   0.528   0.531   0.528   0.526   0.516   0.517   0.519   0.522   0.518   0.511   0.512   0.513
    71.35    0.539   0.542   0.537   0.539   0.540   0.541   0.547   0.539   0.530   0.536   0.530   0.535   0.533   0.537   0.534   0.539   0.533   0.530   0.524   0.528   0.528   0.529   0.533   0.537   0.530   0.522   0.517   0.514   0.520   0.524   0.518   0.517   0.519
    67.29    0.536   0.530   0.530   0.535   0.538   0.548   0.534   0.533   0.530   0.534   0.528   0.524   0.531   0.531   0.535   0.536   0.530   0.526   0.519   0.527   0.531   0.531   0.528   0.527   0.531   0.526   0.524   0.517   0.519   0.521   0.519   0.512   0.511
    63.23    0.533   0.530   0.528   0.539   0.541   0.540   0.536   0.536   0.541   0.543   0.533   0.529   0.523   0.532   0.541   0.539   0.533   0.525   0.528   0.532   0.535   0.532   0.529   0.529   0.533   0.539   0.539   0.526   0.526   0.520   0.515   0.515   0.510
    59.16    0.532   0.537   0.535   0.545   0.534   0.536   0.533   0.534   0.538   0.540   0.540   0.539   0.535   0.531   0.538   0.537   0.532   0.532   0.526   0.531   0.532   0.527   0.530   0.519   0.531   0.541   0.538   0.540   0.539   0.530   0.527   0.517   0.513
    55.10    0.537   0.528   0.535   0.534   0.534   0.536   0.534   0.539   0.541   0.534   0.533   0.527   0.528   0.530   0.532   0.527   0.526   0.522   0.524   0.534   0.528   0.525   0.528   0.532   0.531   0.541   0.544   0.541   0.536   0.532   0.529   0.521   0.514
    51.04    0.537   0.526   0.534   0.545   0.543   0.543   0.539   0.538   0.532   0.538   0.529   0.521   0.523   0.522   0.531   0.520   0.524   0.524   0.521   0.528   0.531   0.530   0.532   0.538   0.538   0.540   0.541   0.540   0.534   0.531   0.531   0.528   0.522
    46.98    0.538   0.534   0.534   0.543   0.533   0.535   0.532   0.538   0.541   0.539   0.534   0.531   0.523   0.522   0.518   0.522   0.523   0.530   0.531   0.524   0.521   0.521   0.532   0.539   0.534   0.542   0.544   0.537   0.530   0.532   0.537   0.529   0.530
    42.91    0.527   0.523   0.536   0.539   0.535   0.530   0.528   0.530   0.533   0.538   0.532   0.531   0.535   0.527   0.522   0.523   0.528   0.527   0.529   0.522   0.514   0.523   0.524   0.531   0.539   0.537   0.539   0.536   0.530   0.532   0.535   0.537   0.527
    38.85    0.523   0.531   0.537   0.534   0.535   0.530   0.528   0.529   0.531   0.539   0.533   0.529   0.528   0.527   0.526   0.524   0.521   0.521   0.529   0.523   0.524   0.530   0.535   0.537   0.533   0.534   0.543   0.539   0.537   0.538   0.545   0.529   0.526
    34.79    0.533   0.532   0.540   0.542   0.534   0.537   0.528   0.533   0.537   0.531   0.527   0.530   0.526   0.525   0.522   0.520   0.526   0.519   0.524   0.518   0.520   0.524   0.529   0.536   0.536   0.532   0.536   0.538   0.539   0.544   0.542   0.536   0.534
    30.73    0.528   0.533   0.537   0.533   0.527   0.530   0.531   0.528   0.525   0.522   0.535   0.528   0.520   0.522   0.523   0.517   0.513   0.526   0.523   0.523   0.522   0.524   0.525   0.529   0.538   0.531   0.532   0.529   0.537   0.537   0.537   0.533   0.532
    26.66    0.529   0.528   0.529   0.536   0.539   0.532   0.529   0.523   0.520   0.526   0.529   0.522   0.520   0.522   0.527   0.518   0.520   0.526   0.526   0.528   0.531   0.523   0.517   0.528   0.531   0.535   0.534   0.520   0.530   0.529   0.527   0.530   0.527
    22.60    0.528   0.523   0.531   0.534   0.536   0.535   0.532   0.524   0.521   0.524   0.525   0.521   0.520   0.520   0.524   0.521   0.520   0.524   0.518   0.526   0.525   0.518   0.520   0.524   0.532   0.531   0.524   0.520   0.528   0.525   0.523   0.528   0.524

   Mean standard deviation across all grid points:
      u component:    0.897 m/s
      v component:    0.666 m/s
      w component:    0.533 m/s


U-component (X) statistics from the hub grid point:

   Mean =   8.0000 m/s
   TI   =  11.1074 %

Nyquist frequency of turbulent wind field =        10.000 Hz


Processing complete.  2784.2 CPU seconds used.
