
This summary file was generated by TurbSim (v1.06.00, 21-Sep-2012) on 02-Sep-2020 at 20:53:45.


Runtime Options:

   2318573  Random seed #1
    RANLUX  Type of random number generator
         F  Output binary HH turbulence parameters?
         F  Output formatted turbulence parameters?
         F  Output AeroDyn HH files?
         T  Output AeroDyn FF files?
         F  Output BLADED FF files?
         T  Output tower data?
         F  Output formatted FF files?
         F  Output coherent turbulence time step file?
         T  Clockwise rotation when looking downwind?
 0 -  NONE  IEC turbulence models scaled to exact specified standard deviation


Turbine/Model Specifications:

        31  Vertical grid-point matrix dimension
        31  Horizontal grid-point matrix dimension
     0.050  Time step [seconds]
   600.000  Analysis time [seconds]
   600.000  Usable output time [seconds]
    87.600  Hub height [m]
   140.000  Grid height [m]
   140.000  Grid width [m]
     0.000  Vertical flow angle [degrees]
     0.000  Horizontal flow angle [degrees]


Meteorological Boundary Conditions:

    SMOOTH  RISO Smooth Terrain spectral model
       N/A  IEC standard
       N/A  IEC turbulence characteristic
       N/A  IEC turbulence type
       N/A  IEC Extreme Turbulence Model (ETM) "c" parameter [m/s]
       IEC  Wind profile type
    90.000  Reference height [m]
    10.000  Reference wind speed [m/s]
       N/A  Jet height [m]
     0.143  Power law exponent
     0.010  Surface roughness length [m]


Non-IEC Meteorological Boundary Conditions:

    45.000  Site latitude [degrees]
     0.050  Gradient Richardson number
     0.424  Friction or shear velocity [m/s]
       N/A  Mixing layer depth [m]
    -0.180  Mean hub u'w' Reynolds stress
       N/A  Mean hub u'v' Reynolds stress
       N/A  Mean hub v'w' Reynolds stress
(    9.961,  0.00    )  u-component coherence parameters
(    7.471,  0.00    )  v-component coherence parameters
(    7.471,  0.00    )  w-component coherence parameters
     0.000  Coherence exponent


You have requested that the following file(s) be generated:

   unsteady_tmp_10.bts (AeroDyn/TurbSim full-field wind file)


Turbulence Simulation Scaling Parameter Summary:

   Turbulence model used                            =  RISO Smooth Terrain
   Gradient Richardson number                       =    0.050
   Monin-Obukhov (M-O) z/L parameter                =    0.067
   Monin-Obukhov (M-O) length scale                 = 1314.000 m
   Mean wind speed at hub height                    =    9.961 m/s

   Wind profile type                                =  Power law on rotor disk, logarithmic elsewhere
   Power law exponent                               =    0.143
   Mean shear across rotor disk                     =    0.019 (m/s)/m
   Assumed rotor diameter                           =  140.000 m
   Surface roughness length                         =    0.010 m

   Number of time steps in the FFT                  =    12288
   Number of time steps output                      =    12282


Mean Flow Angles:

   Vertical   =   0.0 degrees
   Horizontal =   0.0 degrees

Mean Wind Speed Profile:

   Height    Wind Speed   Horizontal Angle  U-comp (X)   V-comp (Y)   W-comp (Z)
     (m)        (m/s)         (degrees)       (m/s)        (m/s)        (m/s)   
   ------    ----------   ----------------  ----------   ----------   ----------
    157.6       10.61            0.00         10.61         0.00         0.00
    152.9       10.79            0.00         10.79         0.00         0.00
    148.3       10.74            0.00         10.74         0.00         0.00
    143.6       10.69            0.00         10.69         0.00         0.00
    138.9       10.64            0.00         10.64         0.00         0.00
    134.3       10.59            0.00         10.59         0.00         0.00
    129.6       10.54            0.00         10.54         0.00         0.00
    124.9       10.48            0.00         10.48         0.00         0.00
    120.3       10.42            0.00         10.42         0.00         0.00
    115.6       10.36            0.00         10.36         0.00         0.00
    110.9       10.30            0.00         10.30         0.00         0.00
    106.3       10.24            0.00         10.24         0.00         0.00
    101.6       10.17            0.00         10.17         0.00         0.00
     96.9       10.11            0.00         10.11         0.00         0.00
     92.3       10.04            0.00         10.04         0.00         0.00
     87.6        9.96            0.00          9.96         0.00         0.00
     82.9        9.88            0.00          9.88         0.00         0.00
     78.3        9.80            0.00          9.80         0.00         0.00
     73.6        9.72            0.00          9.72         0.00         0.00
     68.9        9.63            0.00          9.63         0.00         0.00
     64.3        9.53            0.00          9.53         0.00         0.00
     59.6        9.43            0.00          9.43         0.00         0.00
     54.9        9.32            0.00          9.32         0.00         0.00
     50.3        9.20            0.00          9.20         0.00         0.00
     45.6        9.07            0.00          9.07         0.00         0.00
     40.9        8.93            0.00          8.93         0.00         0.00
     36.3        8.78            0.00          8.78         0.00         0.00
     31.6        8.61            0.00          8.61         0.00         0.00
     26.9        8.42            0.00          8.42         0.00         0.00
     22.3        8.19            0.00          8.19         0.00         0.00
     17.6        7.92            0.00          7.92         0.00         0.00
     12.9        7.86            0.00          7.86         0.00         0.00
      8.3        7.37            0.00          7.37         0.00         0.00
      3.6        6.46            0.00          6.46         0.00         0.00


Harvested Random Seeds after Generation of the Random Numbers:

    165098496 K1
            0 K2


Scaling statistics from the hub grid point:

   Cross-Component  Scaling Factor
   ---------------  --------------
   u'w'               -0.13971E+00
   u'v'                0.00000E+00
   v'w'                0.00000E+00


Hub-Height Simulated Turbulence Statistical Summary:

   Type of Wind        Min (m/s)   Mean (m/s)    Max (m/s)  Sigma (m/s)       TI (%)
   ----------------    ---------   ----------    ---------  -----------       ------
   Longitudinal (u)         6.64         9.96        12.86        0.916        9.191
   Lateral (v)             -2.76         0.00         2.90        0.843        8.463
   Vertical (w)            -2.12         0.00         1.97        0.646        6.484
   U component              6.64         9.96        12.86        0.916        9.191
   V component             -2.76         0.00         2.90        0.843        8.463
   W component             -2.12         0.00         1.97        0.646        6.484
   Horizontal (U&V)         6.65        10.00        12.92        0.912        9.123
   Total                    6.65        10.02        12.93        0.911        9.090

                       Min Reynolds     Mean Reynolds    Max Reynolds    Correlation
   Product             Stress (m/s)^2   Stress (m/s)^2   Stress (m/s)^2  Coefficient
   ----------------    --------------   --------------   --------------  -----------
   u'w'                     -4.506            -0.180             3.201        -0.304
   u'v'                     -3.248            -0.015             4.720        -0.019
   v'w'                     -4.390            -0.058             2.848        -0.107


   Friction Velocity (Ustar)  =      0.424 m/s
   Maximum Instantaneous TKE  =      5.995 (m/s)^2
   Maximum Instantaneous CTKE =      2.428 (m/s)^2


Grid Point Variance Summary:

   Y-coord  -70.00  -65.33  -60.67  -56.00  -51.33  -46.67  -42.00  -37.33  -32.67  -28.00  -23.33  -18.67  -14.00   -9.33   -4.67    0.00    4.67    9.33   14.00   18.67   23.33   28.00   32.67   37.33   42.00   46.67   51.33   56.00   60.67   65.33   70.00

   Height   Standard deviation at grid points for the u component:
   157.60    0.784   0.821   0.818   0.883   0.932   0.937   0.941   0.982   1.043   1.039   1.025   1.052   1.032   1.054   1.062   1.037   1.092   1.066   1.023   1.072   1.118   1.100   1.032   1.092   1.066   1.043   1.052   0.951   0.900   0.828   0.827
   152.93    0.790   0.772   0.825   0.837   0.837   0.923   0.956   0.957   0.982   1.029   1.039   1.054   1.030   1.008   1.030   1.045   1.042   1.002   1.038   1.099   1.069   1.002   1.049   1.073   1.075   1.048   1.021   0.947   0.864   0.831   0.847
   148.27    0.797   0.766   0.769   0.777   0.886   0.895   0.915   0.958   0.989   0.984   1.045   1.045   0.973   0.980   1.020   1.049   1.029   1.058   1.052   1.051   1.017   0.979   0.991   1.027   0.980   1.014   1.019   0.932   0.859   0.861   0.824
   143.60    0.799   0.747   0.785   0.832   0.843   0.878   0.880   0.904   0.947   0.982   1.025   1.014   0.920   0.994   1.055   1.067   1.092   1.011   1.053   0.983   1.032   0.983   1.040   1.022   1.025   0.993   0.989   0.907   0.877   0.872   0.884
   138.93    0.771   0.742   0.766   0.833   0.865   0.867   0.916   0.917   0.991   1.008   0.982   0.982   0.916   0.922   1.000   1.041   1.047   1.020   1.036   1.069   0.990   1.055   1.003   1.017   1.048   0.977   0.959   0.917   0.951   0.964   0.919
   134.27    0.850   0.840   0.812   0.879   0.912   0.886   0.932   0.950   0.979   0.958   0.949   0.905   0.900   0.914   0.961   0.979   1.011   1.038   1.075   1.029   1.049   1.054   1.117   1.070   1.029   1.034   1.002   0.991   1.001   0.941   0.910
   129.60    0.878   0.834   0.887   0.889   0.899   0.957   0.972   0.933   0.925   0.891   0.883   0.918   0.886   0.897   0.965   0.941   0.962   1.012   1.041   1.008   1.024   1.061   1.050   1.103   1.016   1.036   1.011   0.994   1.009   0.991   0.974
   124.93    0.901   0.910   0.923   0.949   0.971   0.956   0.946   0.928   0.952   0.902   0.901   0.875   0.883   0.928   0.913   0.920   0.930   0.993   0.980   0.975   0.975   1.007   1.063   1.074   1.061   1.006   0.971   1.029   0.995   0.993   1.046
   120.27    1.006   0.978   0.931   0.967   0.974   0.965   0.988   0.959   0.923   0.946   0.921   0.904   0.925   0.930   0.881   0.883   0.953   0.959   0.921   0.918   0.989   1.015   1.053   1.081   1.061   1.088   0.967   1.054   1.077   1.040   1.067
   115.60    1.015   0.933   0.873   0.932   0.938   0.918   0.938   0.895   0.900   0.899   0.928   0.949   0.950   0.919   0.885   0.895   0.904   0.957   0.952   0.870   0.951   1.031   1.047   1.016   1.084   1.057   0.999   1.053   1.043   1.097   1.073
   110.93    1.018   0.986   0.932   0.913   0.896   0.923   0.887   0.884   0.935   0.950   0.982   1.012   0.977   0.873   0.914   0.941   0.960   0.944   0.934   0.898   0.951   1.024   1.026   1.062   1.092   1.046   1.031   1.065   1.043   1.101   1.121
   106.27    1.017   0.954   1.004   0.951   0.934   0.915   0.844   0.905   0.883   0.943   0.955   0.992   0.962   0.906   0.908   0.904   0.933   0.974   0.928   0.947   0.950   0.964   1.006   1.030   1.036   0.995   1.003   1.019   1.085   1.044   1.068
   101.60    1.051   1.026   1.019   1.058   0.970   0.945   0.885   0.927   0.938   0.955   0.911   0.937   0.948   0.909   0.922   0.909   0.903   0.954   0.976   0.970   0.945   0.939   0.976   0.996   1.053   1.035   1.027   1.002   1.059   1.016   1.058
    96.93    1.076   1.032   0.954   1.012   1.044   0.978   0.969   0.921   0.963   0.907   0.900   0.946   0.935   0.971   0.901   0.950   0.943   0.899   0.926   0.935   0.944   0.949   0.958   0.959   0.980   0.981   0.975   1.036   1.043   1.040   1.064
    92.27    1.039   1.054   0.994   1.000   1.021   1.079   1.010   0.955   0.900   0.926   0.902   0.933   0.945   0.925   0.917   0.907   0.931   0.921   0.881   0.904   0.895   0.918   0.930   0.916   0.925   0.943   0.950   1.003   1.063   1.096   1.072
    87.60    1.048   1.030   1.045   0.999   1.004   1.016   1.004   0.947   0.939   0.896   0.918   0.918   0.925   0.942   0.896   0.916   0.930   0.910   0.892   0.865   0.924   0.929   0.910   0.895   0.898   0.905   0.988   1.115   1.165   1.093   1.152
    82.93    1.080   1.034   0.977   1.020   0.963   0.957   0.962   0.941   0.922   0.926   0.864   0.896   0.930   0.968   0.927   0.928   0.907   0.847   0.877   0.873   0.851   0.916   0.896   0.913   0.892   0.946   0.999   1.110   1.143   1.132   1.137
    78.27    1.045   1.024   1.012   1.039   0.973   0.937   0.992   0.978   0.921   0.937   0.925   0.856   0.913   0.949   0.927   0.937   0.910   0.884   0.893   0.888   0.890   0.888   0.968   0.914   0.962   0.980   1.086   1.081   1.101   1.133   1.150
    73.60    1.001   1.013   0.978   1.018   0.927   0.965   0.991   1.001   0.936   0.918   0.904   0.878   0.891   0.883   0.867   0.929   0.890   0.864   0.854   0.865   0.908   0.933   0.969   0.988   0.946   1.068   1.058   1.090   1.121   1.145   1.121
    68.93    0.988   0.977   1.014   1.008   0.957   1.029   1.031   1.006   0.950   0.931   0.878   0.881   0.898   0.885   0.921   0.950   0.910   0.943   0.897   0.935   0.935   0.948   0.974   0.993   1.010   1.032   1.028   1.076   1.092   1.109   1.113
    64.27    0.933   0.914   0.914   1.002   0.986   1.006   1.026   0.947   0.927   0.959   0.977   0.946   0.871   0.866   0.904   0.944   0.921   0.938   0.986   0.970   0.884   0.951   0.965   1.049   1.014   1.031   1.025   1.008   1.064   1.140   1.115
    59.60    0.962   0.910   0.904   0.940   0.957   0.998   1.059   1.001   0.971   0.943   0.949   0.941   0.890   0.891   0.894   0.942   0.921   0.923   0.978   0.936   0.933   0.925   1.000   1.041   0.963   1.003   1.008   1.108   1.109   1.121   1.102
    54.93    0.943   0.958   0.911   0.956   0.972   0.996   1.005   0.938   1.013   1.033   0.982   0.945   0.972   0.973   1.006   0.941   0.927   0.888   0.895   0.924   0.934   0.937   0.988   0.981   0.979   1.033   1.042   1.106   1.097   1.103   1.113
    50.27    0.949   0.917   0.955   0.976   0.978   1.009   1.015   1.001   1.030   1.003   0.961   0.949   0.988   1.014   1.039   1.018   0.961   0.902   0.877   0.916   0.943   0.998   1.007   0.975   1.018   1.020   1.051   1.085   1.046   1.133   1.098
    45.60    0.909   0.932   1.005   0.982   0.973   0.980   0.977   1.001   1.049   1.015   0.977   0.998   0.999   0.982   0.987   0.994   0.997   0.997   0.980   0.910   0.939   0.967   0.945   0.960   0.967   1.021   1.071   1.115   1.059   1.080   1.134
    40.93    0.980   0.965   1.011   0.987   0.981   0.991   0.994   0.982   0.996   0.988   0.961   0.973   0.986   1.040   1.002   1.030   1.008   1.060   0.993   0.965   0.956   0.933   0.973   0.992   1.004   0.999   1.038   1.125   1.107   1.090   1.095
    36.27    1.001   1.025   1.023   0.976   0.979   1.000   0.988   0.983   0.993   0.967   0.960   0.985   0.976   1.072   1.060   1.032   0.993   1.040   1.025   0.961   0.909   0.918   0.929   1.011   1.069   0.982   1.034   1.054   1.066   1.035   1.078
    31.60    1.005   1.020   1.022   1.054   1.043   1.037   0.998   0.962   0.969   0.997   1.007   0.985   1.029   1.064   1.082   1.066   1.042   1.041   1.011   0.971   0.906   0.921   0.896   0.944   1.045   0.995   0.994   1.024   1.027   1.087   1.059
    26.93    1.059   1.074   1.078   1.038   1.025   1.028   1.036   1.062   1.005   1.044   1.039   1.071   1.068   1.094   1.119   1.102   1.091   1.054   1.003   0.949   0.965   0.949   0.911   0.951   1.002   0.990   0.967   1.033   1.044   1.044   1.074
    22.27    1.111   1.142   1.097   1.045   1.049   1.060   1.025   1.014   1.004   1.045   1.107   1.085   1.078   1.047   1.117   1.091   1.053   1.019   1.014   0.989   1.045   1.002   0.952   0.929   0.991   0.991   1.032   1.073   1.093   1.073   1.069
    17.60    1.094   1.156   1.078   1.078   1.042   1.073   0.986   1.046   1.038   1.056   1.067   1.063   1.054   1.048   1.085   1.090   1.057   1.045   1.025   1.031   1.029   1.035   1.033   0.976   0.965   1.062   1.078   1.088   1.077   1.139   1.128

   Height   Standard deviation at grid points for the v component:
   157.60    0.821   0.790   0.776   0.788   0.773   0.767   0.744   0.735   0.697   0.747   0.818   0.843   0.831   0.873   0.863   0.899   0.906   0.911   0.914   0.870   0.840   0.832   0.858   0.856   0.848   0.877   0.864   0.882   0.879   0.953   0.969
   152.93    0.795   0.804   0.779   0.792   0.784   0.774   0.770   0.751   0.709   0.752   0.814   0.839   0.831   0.840   0.882   0.878   0.901   0.894   0.877   0.849   0.837   0.807   0.852   0.869   0.893   0.874   0.875   0.874   0.877   0.915   0.946
   148.27    0.808   0.811   0.813   0.778   0.782   0.751   0.762   0.760   0.746   0.745   0.787   0.822   0.838   0.851   0.886   0.823   0.850   0.855   0.852   0.858   0.846   0.846   0.846   0.887   0.908   0.881   0.873   0.864   0.874   0.902   0.899
   143.60    0.807   0.793   0.826   0.814   0.777   0.753   0.758   0.744   0.754   0.767   0.800   0.812   0.838   0.849   0.840   0.816   0.806   0.871   0.841   0.821   0.831   0.860   0.896   0.890   0.916   0.873   0.852   0.840   0.870   0.893   0.929
   138.93    0.820   0.785   0.824   0.781   0.811   0.761   0.745   0.772   0.783   0.782   0.771   0.817   0.854   0.851   0.848   0.809   0.829   0.849   0.850   0.821   0.831   0.865   0.887   0.899   0.917   0.892   0.872   0.852   0.861   0.894   0.894
   134.27    0.809   0.785   0.820   0.810   0.795   0.797   0.772   0.790   0.822   0.777   0.793   0.803   0.856   0.844   0.832   0.837   0.843   0.833   0.866   0.827   0.870   0.883   0.891   0.898   0.905   0.901   0.900   0.873   0.875   0.864   0.866
   129.60    0.808   0.813   0.788   0.818   0.769   0.782   0.777   0.779   0.792   0.788   0.800   0.813   0.843   0.838   0.853   0.866   0.891   0.889   0.886   0.859   0.892   0.902   0.928   0.927   0.918   0.941   0.912   0.854   0.860   0.857   0.852
   124.93    0.803   0.809   0.792   0.812   0.828   0.805   0.780   0.773   0.759   0.787   0.801   0.820   0.825   0.850   0.871   0.893   0.916   0.931   0.950   0.921   0.907   0.887   0.909   0.916   0.921   0.928   0.916   0.887   0.870   0.869   0.885
   120.27    0.789   0.818   0.813   0.823   0.826   0.825   0.770   0.775   0.773   0.776   0.824   0.836   0.824   0.862   0.878   0.899   0.901   0.934   0.958   0.925   0.884   0.894   0.877   0.911   0.905   0.892   0.865   0.839   0.833   0.847   0.886
   115.60    0.766   0.796   0.782   0.796   0.853   0.829   0.827   0.796   0.824   0.815   0.819   0.803   0.813   0.829   0.852   0.870   0.903   0.926   0.943   0.882   0.868   0.877   0.864   0.888   0.892   0.852   0.853   0.832   0.827   0.823   0.840
   110.93    0.844   0.834   0.802   0.814   0.821   0.834   0.820   0.834   0.802   0.818   0.791   0.793   0.817   0.844   0.860   0.879   0.894   0.896   0.895   0.885   0.887   0.895   0.881   0.882   0.873   0.882   0.847   0.830   0.826   0.831   0.809
   106.27    0.840   0.847   0.839   0.840   0.843   0.849   0.851   0.854   0.846   0.798   0.820   0.804   0.846   0.843   0.881   0.881   0.875   0.847   0.870   0.877   0.872   0.873   0.884   0.856   0.880   0.839   0.819   0.834   0.802   0.812   0.789
   101.60    0.828   0.839   0.848   0.842   0.844   0.855   0.863   0.879   0.842   0.820   0.796   0.807   0.816   0.831   0.855   0.874   0.881   0.854   0.817   0.833   0.896   0.880   0.858   0.903   0.889   0.874   0.837   0.833   0.830   0.818   0.801
    96.93    0.845   0.830   0.848   0.861   0.848   0.869   0.861   0.860   0.817   0.803   0.819   0.817   0.817   0.832   0.837   0.857   0.868   0.846   0.830   0.839   0.880   0.908   0.936   0.901   0.895   0.882   0.853   0.835   0.806   0.816   0.825
    92.27    0.865   0.846   0.846   0.852   0.884   0.852   0.897   0.838   0.805   0.820   0.823   0.812   0.811   0.843   0.840   0.810   0.856   0.838   0.829   0.880   0.900   0.914   0.925   0.875   0.873   0.859   0.846   0.838   0.845   0.806   0.845
    87.60    0.876   0.840   0.852   0.859   0.876   0.861   0.846   0.832   0.798   0.803   0.833   0.838   0.838   0.799   0.818   0.843   0.866   0.847   0.870   0.878   0.900   0.917   0.856   0.862   0.885   0.892   0.886   0.853   0.838   0.864   0.850
    82.93    0.865   0.842   0.891   0.857   0.849   0.831   0.845   0.845   0.792   0.799   0.796   0.827   0.834   0.817   0.776   0.816   0.854   0.853   0.849   0.861   0.886   0.872   0.869   0.878   0.897   0.919   0.908   0.892   0.895   0.876   0.876
    78.27    0.899   0.883   0.900   0.881   0.850   0.839   0.822   0.825   0.815   0.793   0.798   0.817   0.832   0.811   0.764   0.773   0.822   0.857   0.832   0.856   0.894   0.881   0.855   0.866   0.891   0.910   0.929   0.914   0.911   0.898   0.871
    73.60    0.897   0.882   0.906   0.899   0.889   0.830   0.828   0.813   0.808   0.813   0.797   0.826   0.823   0.813   0.787   0.813   0.786   0.808   0.828   0.828   0.852   0.880   0.859   0.888   0.927   0.944   0.962   0.953   0.948   0.926   0.919
    68.93    0.914   0.908   0.859   0.893   0.900   0.843   0.827   0.857   0.823   0.811   0.798   0.798   0.790   0.802   0.811   0.828   0.812   0.843   0.837   0.879   0.909   0.866   0.902   0.906   0.905   0.938   0.925   0.940   0.962   0.901   0.917
    64.27    0.863   0.894   0.873   0.913   0.912   0.847   0.820   0.830   0.859   0.818   0.817   0.801   0.776   0.791   0.798   0.811   0.812   0.864   0.844   0.864   0.884   0.891   0.885   0.860   0.860   0.902   0.892   0.916   0.930   0.941   0.898
    59.60    0.870   0.878   0.869   0.888   0.869   0.847   0.823   0.823   0.845   0.842   0.804   0.832   0.816   0.813   0.818   0.848   0.838   0.847   0.862   0.870   0.864   0.860   0.850   0.840   0.823   0.888   0.927   0.912   0.908   0.894   0.913
    54.93    0.890   0.891   0.897   0.871   0.855   0.864   0.852   0.823   0.841   0.854   0.851   0.838   0.820   0.828   0.844   0.837   0.878   0.889   0.860   0.844   0.830   0.838   0.811   0.869   0.866   0.885   0.904   0.897   0.910   0.914   0.914
    50.27    0.872   0.862   0.920   0.926   0.890   0.851   0.839   0.841   0.823   0.827   0.830   0.841   0.833   0.843   0.820   0.861   0.861   0.866   0.859   0.851   0.809   0.841   0.815   0.809   0.840   0.866   0.886   0.901   0.896   0.903   0.916
    45.60    0.887   0.873   0.903   0.891   0.898   0.857   0.829   0.822   0.803   0.794   0.801   0.816   0.830   0.836   0.868   0.884   0.882   0.886   0.845   0.827   0.832   0.824   0.811   0.819   0.812   0.845   0.894   0.897   0.934   0.893   0.892
    40.93    0.826   0.837   0.853   0.858   0.844   0.828   0.816   0.810   0.806   0.805   0.807   0.791   0.820   0.844   0.887   0.897   0.908   0.881   0.847   0.802   0.784   0.807   0.807   0.810   0.824   0.835   0.896   0.907   0.871   0.868   0.855
    36.27    0.828   0.827   0.836   0.873   0.841   0.809   0.820   0.823   0.840   0.818   0.786   0.793   0.845   0.863   0.906   0.893   0.899   0.899   0.870   0.828   0.814   0.818   0.807   0.813   0.809   0.819   0.855   0.882   0.873   0.857   0.852
    31.60    0.870   0.853   0.850   0.844   0.817   0.769   0.796   0.826   0.823   0.812   0.767   0.797   0.837   0.847   0.894   0.912   0.916   0.894   0.866   0.836   0.847   0.865   0.852   0.843   0.840   0.851   0.879   0.878   0.829   0.854   0.861
    26.93    0.847   0.832   0.800   0.835   0.782   0.807   0.795   0.807   0.818   0.793   0.792   0.801   0.798   0.836   0.845   0.882   0.889   0.872   0.852   0.895   0.858   0.834   0.859   0.859   0.851   0.867   0.909   0.896   0.853   0.833   0.820
    22.27    0.838   0.787   0.806   0.814   0.811   0.828   0.804   0.842   0.845   0.812   0.805   0.800   0.794   0.843   0.858   0.894   0.890   0.907   0.854   0.884   0.857   0.811   0.851   0.858   0.830   0.854   0.850   0.877   0.863   0.855   0.832
    17.60    0.834   0.809   0.803   0.820   0.832   0.807   0.812   0.819   0.831   0.838   0.803   0.831   0.817   0.823   0.850   0.875   0.886   0.893   0.863   0.840   0.838   0.838   0.847   0.861   0.856   0.853   0.850   0.852   0.865   0.846   0.838

   Height   Standard deviation at grid points for the w component:
   157.60    0.618   0.626   0.631   0.617   0.653   0.634   0.636   0.635   0.624   0.623   0.585   0.633   0.625   0.640   0.622   0.630   0.648   0.666   0.667   0.650   0.649   0.664   0.676   0.672   0.690   0.651   0.675   0.681   0.720   0.689   0.685
   152.93    0.611   0.614   0.623   0.618   0.630   0.634   0.635   0.619   0.620   0.625   0.616   0.643   0.650   0.648   0.664   0.650   0.638   0.647   0.663   0.647   0.650   0.666   0.679   0.691   0.690   0.673   0.669   0.668   0.720   0.699   0.694
   148.27    0.638   0.652   0.633   0.645   0.641   0.618   0.637   0.621   0.622   0.635   0.633   0.647   0.659   0.635   0.640   0.627   0.636   0.632   0.662   0.651   0.669   0.652   0.666   0.682   0.713   0.686   0.671   0.699   0.723   0.726   0.707
   143.60    0.627   0.648   0.633   0.641   0.647   0.612   0.629   0.621   0.628   0.630   0.643   0.636   0.634   0.640   0.650   0.638   0.628   0.620   0.628   0.667   0.689   0.675   0.675   0.671   0.684   0.673   0.698   0.702   0.709   0.700   0.704
   138.93    0.624   0.600   0.626   0.638   0.644   0.631   0.640   0.633   0.654   0.653   0.655   0.623   0.634   0.628   0.610   0.628   0.631   0.630   0.641   0.664   0.670   0.669   0.689   0.684   0.693   0.703   0.681   0.695   0.713   0.727   0.733
   134.27    0.625   0.628   0.628   0.636   0.650   0.655   0.649   0.665   0.644   0.649   0.655   0.638   0.624   0.628   0.618   0.619   0.640   0.621   0.630   0.665   0.662   0.693   0.663   0.692   0.695   0.684   0.681   0.690   0.708   0.716   0.726
   129.60    0.638   0.651   0.634   0.654   0.654   0.689   0.669   0.665   0.670   0.676   0.638   0.631   0.634   0.613   0.628   0.619   0.601   0.603   0.634   0.644   0.673   0.694   0.672   0.664   0.667   0.688   0.677   0.685   0.691   0.675   0.695
   124.93    0.660   0.659   0.658   0.645   0.644   0.654   0.665   0.651   0.662   0.664   0.672   0.662   0.664   0.633   0.637   0.626   0.621   0.628   0.627   0.643   0.656   0.687   0.697   0.679   0.668   0.694   0.684   0.675   0.663   0.672   0.675
   120.27    0.671   0.655   0.635   0.659   0.664   0.643   0.646   0.659   0.662   0.678   0.679   0.662   0.657   0.655   0.650   0.636   0.642   0.648   0.656   0.652   0.703   0.699   0.706   0.706   0.691   0.689   0.681   0.691   0.684   0.676   0.669
   115.60    0.643   0.645   0.638   0.642   0.659   0.648   0.659   0.654   0.646   0.653   0.659   0.648   0.658   0.672   0.677   0.658   0.634   0.661   0.654   0.657   0.714   0.713   0.690   0.677   0.703   0.686   0.687   0.678   0.670   0.675   0.683
   110.93    0.625   0.624   0.623   0.638   0.640   0.661   0.661   0.637   0.666   0.668   0.674   0.653   0.641   0.637   0.646   0.673   0.656   0.676   0.674   0.655   0.714   0.722   0.702   0.706   0.700   0.689   0.683   0.673   0.672   0.688   0.676
   106.27    0.619   0.626   0.659   0.658   0.650   0.670   0.653   0.663   0.655   0.644   0.663   0.646   0.630   0.654   0.684   0.674   0.688   0.691   0.642   0.654   0.699   0.709   0.708   0.688   0.686   0.676   0.658   0.637   0.653   0.676   0.673
   101.60    0.618   0.641   0.662   0.671   0.656   0.661   0.655   0.672   0.653   0.653   0.672   0.641   0.641   0.651   0.679   0.679   0.684   0.679   0.662   0.650   0.651   0.666   0.709   0.686   0.703   0.686   0.686   0.659   0.656   0.653   0.677
    96.93    0.651   0.659   0.665   0.675   0.674   0.675   0.668   0.640   0.660   0.664   0.686   0.666   0.653   0.632   0.634   0.650   0.672   0.661   0.674   0.663   0.649   0.660   0.664   0.674   0.680   0.692   0.702   0.685   0.660   0.656   0.685
    92.27    0.656   0.664   0.695   0.689   0.683   0.688   0.683   0.668   0.658   0.686   0.685   0.677   0.662   0.649   0.636   0.631   0.679   0.669   0.676   0.665   0.650   0.646   0.630   0.644   0.643   0.648   0.656   0.689   0.668   0.650   0.674
    87.60    0.651   0.677   0.708   0.683   0.692   0.697   0.691   0.713   0.675   0.663   0.664   0.647   0.636   0.623   0.612   0.646   0.670   0.679   0.666   0.661   0.654   0.646   0.640   0.615   0.636   0.652   0.664   0.686   0.670   0.667   0.681
    82.93    0.666   0.680   0.690   0.695   0.661   0.685   0.683   0.656   0.662   0.649   0.639   0.626   0.629   0.621   0.625   0.638   0.643   0.659   0.655   0.657   0.656   0.648   0.639   0.613   0.617   0.639   0.663   0.641   0.659   0.690   0.668
    78.27    0.677   0.698   0.694   0.702   0.674   0.660   0.690   0.668   0.651   0.648   0.648   0.620   0.604   0.608   0.648   0.650   0.648   0.646   0.656   0.651   0.667   0.677   0.663   0.647   0.638   0.650   0.650   0.644   0.651   0.667   0.662
    73.60    0.661   0.676   0.705   0.708   0.675   0.685   0.671   0.658   0.652   0.647   0.640   0.634   0.629   0.645   0.649   0.641   0.630   0.636   0.653   0.642   0.664   0.664   0.663   0.656   0.659   0.649   0.655   0.640   0.666   0.672   0.682
    68.93    0.664   0.667   0.694   0.720   0.708   0.692   0.704   0.658   0.665   0.663   0.649   0.665   0.652   0.651   0.631   0.662   0.680   0.675   0.688   0.662   0.647   0.658   0.636   0.665   0.669   0.675   0.665   0.655   0.676   0.667   0.687
    64.27    0.652   0.670   0.681   0.700   0.691   0.694   0.688   0.665   0.652   0.658   0.654   0.646   0.658   0.669   0.681   0.695   0.681   0.684   0.691   0.689   0.681   0.677   0.662   0.681   0.687   0.684   0.646   0.658   0.673   0.688   0.682
    59.60    0.668   0.668   0.690   0.673   0.676   0.686   0.697   0.657   0.660   0.661   0.639   0.645   0.651   0.639   0.672   0.707   0.703   0.713   0.700   0.689   0.703   0.687   0.701   0.682   0.669   0.676   0.655   0.673   0.661   0.678   0.683
    54.93    0.664   0.661   0.675   0.682   0.677   0.698   0.673   0.659   0.700   0.656   0.653   0.651   0.676   0.667   0.690   0.676   0.694   0.685   0.689   0.680   0.686   0.701   0.682   0.674   0.659   0.668   0.672   0.697   0.670   0.664   0.691
    50.27    0.645   0.644   0.665   0.676   0.685   0.673   0.684   0.674   0.662   0.679   0.661   0.652   0.667   0.661   0.666   0.675   0.658   0.676   0.705   0.689   0.704   0.691   0.675   0.652   0.645   0.652   0.656   0.650   0.664   0.691   0.689
    45.60    0.632   0.636   0.657   0.643   0.661   0.674   0.649   0.667   0.647   0.651   0.654   0.648   0.665   0.661   0.680   0.669   0.664   0.678   0.700   0.684   0.692   0.690   0.670   0.681   0.645   0.650   0.637   0.668   0.656   0.660   0.682
    40.93    0.651   0.660   0.651   0.653   0.651   0.664   0.656   0.643   0.660   0.669   0.656   0.682   0.654   0.666   0.683   0.674   0.640   0.672   0.688   0.709   0.694   0.703   0.677   0.653   0.672   0.658   0.657   0.668   0.665   0.643   0.645
    36.27    0.658   0.671   0.662   0.662   0.656   0.669   0.671   0.644   0.668   0.666   0.679   0.678   0.663   0.679   0.683   0.670   0.672   0.681   0.689   0.671   0.684   0.690   0.652   0.663   0.665   0.661   0.660   0.656   0.646   0.635   0.637
    31.60    0.665   0.664   0.663   0.679   0.666   0.648   0.643   0.642   0.646   0.684   0.662   0.668   0.661   0.652   0.660   0.643   0.663   0.682   0.668   0.659   0.671   0.676   0.665   0.667   0.676   0.668   0.656   0.638   0.629   0.630   0.622
    26.93    0.678   0.672   0.656   0.690   0.672   0.657   0.654   0.661   0.659   0.670   0.677   0.666   0.661   0.657   0.644   0.628   0.648   0.663   0.658   0.653   0.674   0.658   0.663   0.655   0.650   0.673   0.653   0.648   0.632   0.631   0.622
    22.27    0.669   0.672   0.674   0.684   0.645   0.631   0.652   0.645   0.674   0.664   0.676   0.655   0.655   0.653   0.661   0.645   0.659   0.660   0.648   0.644   0.645   0.651   0.653   0.641   0.666   0.662   0.663   0.655   0.661   0.657   0.645
    17.60    0.665   0.669   0.672   0.661   0.666   0.648   0.644   0.666   0.653   0.668   0.653   0.655   0.659   0.660   0.662   0.665   0.636   0.651   0.645   0.654   0.648   0.644   0.657   0.653   0.660   0.667   0.668   0.673   0.680   0.663   0.657

   Mean standard deviation across all grid points:
      u component:    0.981 m/s
      v component:    0.848 m/s
      w component:    0.662 m/s


U-component (X) statistics from the hub grid point:

   Mean =   9.9614 m/s
   TI   =   9.1911 %

Nyquist frequency of turbulent wind field =        10.000 Hz


Processing complete.  400.98 CPU seconds used.
