
This summary file was generated by TurbSim (v1.06.00, 21-Sep-2012) on 24-Sep-2020 at 16:58:57.


Runtime Options:

  65432154  Random seed #1
    RANLUX  Type of random number generator
         F  Output binary HH turbulence parameters?
         F  Output formatted turbulence parameters?
         F  Output AeroDyn HH files?
         T  Output AeroDyn FF files?
         F  Output BLADED FF files?
         T  Output tower data?
         F  Output formatted FF files?
         F  Output coherent turbulence time step file?
         T  Clockwise rotation when looking downwind?
 0 -  NONE  IEC turbulence models scaled to exact specified standard deviation


Turbine/Model Specifications:

        33  Vertical grid-point matrix dimension
        33  Horizontal grid-point matrix dimension
     0.050  Time step [seconds]
  3610.000  Analysis time [seconds]
  3610.000  Usable output time [seconds]
    87.600  Hub height [m]
   130.000  Grid height [m]
   130.000  Grid width [m]
     0.000  Vertical flow angle [degrees]
     0.000  Horizontal flow angle [degrees]


Meteorological Boundary Conditions:

    SMOOTH  RISO Smooth Terrain spectral model
       N/A  IEC standard
       N/A  IEC turbulence characteristic
       N/A  IEC turbulence type
       N/A  IEC Extreme Turbulence Model (ETM) "c" parameter [m/s]
       IEC  Wind profile type
    87.600  Reference height [m]
    12.000  Reference wind speed [m/s]
       N/A  Jet height [m]
     0.143  Power law exponent
     0.010  Surface roughness length [m]


Non-IEC Meteorological Boundary Conditions:

    45.000  Site latitude [degrees]
     0.050  Gradient Richardson number
     0.510  Friction or shear velocity [m/s]
       N/A  Mixing layer depth [m]
    -0.260  Mean hub u'w' Reynolds stress
       N/A  Mean hub u'v' Reynolds stress
       N/A  Mean hub v'w' Reynolds stress
(   12.000,  0.00    )  u-component coherence parameters
(    9.000,  0.00    )  v-component coherence parameters
(    9.000,  0.00    )  w-component coherence parameters
     0.000  Coherence exponent


You have requested that the following file(s) be generated:

   unsteady_tmp_12.bts (AeroDyn/TurbSim full-field wind file)


Turbulence Simulation Scaling Parameter Summary:

   Turbulence model used                            =  RISO Smooth Terrain
   Gradient Richardson number                       =    0.050
   Monin-Obukhov (M-O) z/L parameter                =    0.067
   Monin-Obukhov (M-O) length scale                 = 1314.000 m
   Mean wind speed at hub height                    =   12.000 m/s

   Wind profile type                                =  Power law on rotor disk, logarithmic elsewhere
   Power law exponent                               =    0.143
   Mean shear across rotor disk                     =    0.022 (m/s)/m
   Assumed rotor diameter                           =  130.000 m
   Surface roughness length                         =    0.010 m

   Number of time steps in the FFT                  =    72576
   Number of time steps output                      =    72417


Mean Flow Angles:

   Vertical   =   0.0 degrees
   Horizontal =   0.0 degrees

Mean Wind Speed Profile:

   Height    Wind Speed   Horizontal Angle  U-comp (X)   V-comp (Y)   W-comp (Z)
     (m)        (m/s)         (degrees)       (m/s)        (m/s)        (m/s)   
   ------    ----------   ----------------  ----------   ----------   ----------
    152.6       12.73            0.00         12.73         0.00         0.00
    148.5       12.94            0.00         12.94         0.00         0.00
    144.5       12.89            0.00         12.89         0.00         0.00
    140.4       12.84            0.00         12.84         0.00         0.00
    136.4       12.78            0.00         12.78         0.00         0.00
    132.3       12.73            0.00         12.73         0.00         0.00
    128.2       12.67            0.00         12.67         0.00         0.00
    124.2       12.61            0.00         12.61         0.00         0.00
    120.1       12.55            0.00         12.55         0.00         0.00
    116.0       12.49            0.00         12.49         0.00         0.00
    112.0       12.43            0.00         12.43         0.00         0.00
    107.9       12.36            0.00         12.36         0.00         0.00
    103.9       12.30            0.00         12.30         0.00         0.00
     99.8       12.23            0.00         12.23         0.00         0.00
     95.7       12.15            0.00         12.15         0.00         0.00
     91.7       12.08            0.00         12.08         0.00         0.00
     87.6       12.00            0.00         12.00         0.00         0.00
     83.5       11.92            0.00         11.92         0.00         0.00
     79.5       11.83            0.00         11.83         0.00         0.00
     75.4       11.75            0.00         11.75         0.00         0.00
     71.4       11.65            0.00         11.65         0.00         0.00
     67.3       11.56            0.00         11.56         0.00         0.00
     63.2       11.45            0.00         11.45         0.00         0.00
     59.2       11.35            0.00         11.35         0.00         0.00
     55.1       11.23            0.00         11.23         0.00         0.00
     51.0       11.11            0.00         11.11         0.00         0.00
     47.0       10.98            0.00         10.98         0.00         0.00
     42.9       10.84            0.00         10.84         0.00         0.00
     38.9       10.68            0.00         10.68         0.00         0.00
     34.8       10.52            0.00         10.52         0.00         0.00
     30.7       10.33            0.00         10.33         0.00         0.00
     26.7       10.12            0.00         10.12         0.00         0.00
     22.6        9.89            0.00          9.89         0.00         0.00
     18.5        9.95            0.00          9.95         0.00         0.00
     14.5        9.62            0.00          9.62         0.00         0.00
     10.4        9.18            0.00          9.18         0.00         0.00
      6.4        8.53            0.00          8.53         0.00         0.00
      2.3        7.18            0.00          7.18         0.00         0.00


Harvested Random Seeds after Generation of the Random Numbers:

    106611632 K1
            1 K2


Scaling statistics from the hub grid point:

   Cross-Component  Scaling Factor
   ---------------  --------------
   u'w'               -0.11779E+00
   u'v'                0.00000E+00
   v'w'                0.00000E+00


Hub-Height Simulated Turbulence Statistical Summary:

   Type of Wind        Min (m/s)   Mean (m/s)    Max (m/s)  Sigma (m/s)       TI (%)
   ----------------    ---------   ----------    ---------  -----------       ------
   Longitudinal (u)         7.00        12.00        16.49        1.323       11.029
   Lateral (v)             -4.18         0.00         3.72        1.018        8.481
   Vertical (w)            -3.43         0.00         3.11        0.811        6.758
   U component              7.00        12.00        16.49        1.323       11.029
   V component             -4.18         0.00         3.72        1.018        8.481
   W component             -3.43         0.00         3.11        0.811        6.758
   Horizontal (U&V)         7.02        12.04        16.52        1.323       10.981
   Total                    7.04        12.07        16.53        1.319       10.926

                       Min Reynolds     Mean Reynolds    Max Reynolds    Correlation
   Product             Stress (m/s)^2   Stress (m/s)^2   Stress (m/s)^2  Coefficient
   ----------------    --------------   --------------   --------------  -----------
   u'w'                    -10.060            -0.260             6.228        -0.242
   u'v'                     -9.194            -0.051             9.170        -0.038
   v'w'                     -6.953             0.011             6.899         0.013


   Friction Velocity (Ustar)  =      0.510 m/s
   Maximum Instantaneous TKE  =     12.803 (m/s)^2
   Maximum Instantaneous CTKE =      5.665 (m/s)^2


Grid Point Variance Summary:

   Y-coord  -65.00  -60.94  -56.88  -52.81  -48.75  -44.69  -40.62  -36.56  -32.50  -28.44  -24.38  -20.31  -16.25  -12.19   -8.12   -4.06    0.00    4.06    8.12   12.19   16.25   20.31   24.38   28.44   32.50   36.56   40.62   44.69   48.75   52.81   56.88   60.94   65.00

   Height   Standard deviation at grid points for the u component:
   152.60    1.344   1.338   1.369   1.360   1.377   1.419   1.407   1.399   1.414   1.402   1.386   1.365   1.390   1.345   1.343   1.343   1.342   1.368   1.385   1.369   1.354   1.334   1.322   1.323   1.308   1.310   1.310   1.312   1.280   1.273   1.267   1.261   1.259
   148.54    1.343   1.351   1.382   1.359   1.403   1.443   1.428   1.427   1.421   1.407   1.427   1.415   1.410   1.367   1.374   1.345   1.360   1.363   1.390   1.368   1.367   1.361   1.353   1.315   1.314   1.316   1.299   1.298   1.278   1.255   1.247   1.243   1.268
   144.48    1.335   1.365   1.367   1.351   1.395   1.435   1.433   1.448   1.436   1.438   1.437   1.442   1.387   1.405   1.390   1.379   1.359   1.366   1.367   1.381   1.375   1.394   1.358   1.327   1.298   1.303   1.326   1.297   1.275   1.268   1.260   1.274   1.262
   140.41    1.347   1.384   1.384   1.355   1.394   1.444   1.457   1.445   1.458   1.437   1.435   1.418   1.412   1.399   1.405   1.379   1.379   1.370   1.363   1.364   1.377   1.361   1.337   1.327   1.314   1.329   1.300   1.304   1.287   1.277   1.299   1.313   1.269
   136.35    1.346   1.364   1.381   1.372   1.409   1.426   1.444   1.468   1.457   1.427   1.416   1.429   1.425   1.406   1.400   1.369   1.369   1.375   1.374   1.382   1.380   1.364   1.330   1.314   1.312   1.333   1.297   1.297   1.303   1.282   1.286   1.307   1.305
   132.29    1.351   1.354   1.387   1.376   1.412   1.441   1.449   1.457   1.446   1.416   1.433   1.412   1.421   1.399   1.396   1.369   1.363   1.371   1.380   1.367   1.356   1.347   1.315   1.311   1.322   1.321   1.286   1.291   1.290   1.278   1.280   1.292   1.304
   128.23    1.372   1.368   1.378   1.396   1.428   1.456   1.469   1.442   1.434   1.416   1.419   1.412   1.416   1.403   1.384   1.359   1.360   1.367   1.381   1.389   1.376   1.349   1.331   1.309   1.310   1.299   1.300   1.284   1.285   1.282   1.272   1.289   1.289
   124.16    1.372   1.390   1.410   1.407   1.430   1.448   1.437   1.413   1.407   1.416   1.420   1.428   1.425   1.410   1.394   1.361   1.337   1.347   1.341   1.356   1.375   1.360   1.346   1.330   1.335   1.305   1.297   1.258   1.276   1.266   1.277   1.307   1.304
   120.10    1.378   1.378   1.388   1.409   1.404   1.411   1.414   1.409   1.400   1.400   1.394   1.427   1.403   1.398   1.370   1.349   1.359   1.342   1.364   1.345   1.367   1.342   1.333   1.324   1.325   1.304   1.283   1.261   1.276   1.293   1.285   1.306   1.335
   116.04    1.355   1.376   1.380   1.402   1.408   1.402   1.413   1.393   1.402   1.392   1.387   1.378   1.400   1.393   1.377   1.344   1.344   1.342   1.346   1.356   1.353   1.344   1.323   1.317   1.305   1.319   1.291   1.285   1.296   1.277   1.291   1.283   1.335
   111.98    1.345   1.360   1.367   1.373   1.379   1.387   1.370   1.389   1.381   1.369   1.368   1.368   1.395   1.394   1.372   1.357   1.351   1.348   1.365   1.380   1.380   1.363   1.314   1.306   1.312   1.310   1.300   1.299   1.296   1.305   1.311   1.313   1.344
   107.91    1.331   1.343   1.372   1.366   1.353   1.359   1.352   1.365   1.382   1.353   1.344   1.359   1.371   1.394   1.383   1.351   1.353   1.339   1.370   1.389   1.384   1.369   1.328   1.320   1.305   1.315   1.296   1.310   1.330   1.324   1.315   1.315   1.330
   103.85    1.366   1.346   1.369   1.346   1.380   1.355   1.358   1.345   1.336   1.351   1.332   1.356   1.351   1.376   1.368   1.356   1.367   1.346   1.367   1.395   1.384   1.383   1.344   1.344   1.312   1.326   1.332   1.322   1.317   1.326   1.308   1.313   1.337
    99.79    1.356   1.357   1.355   1.370   1.369   1.375   1.361   1.331   1.317   1.321   1.316   1.353   1.357   1.360   1.347   1.326   1.343   1.316   1.362   1.372   1.366   1.356   1.360   1.327   1.317   1.306   1.353   1.338   1.305   1.301   1.302   1.318   1.335
    95.73    1.341   1.337   1.354   1.353   1.376   1.357   1.365   1.346   1.327   1.332   1.332   1.350   1.359   1.355   1.341   1.336   1.326   1.334   1.334   1.363   1.356   1.340   1.338   1.348   1.321   1.319   1.315   1.320   1.325   1.335   1.333   1.336   1.362
    91.66    1.327   1.327   1.338   1.352   1.363   1.355   1.355   1.353   1.323   1.331   1.317   1.352   1.376   1.359   1.349   1.343   1.313   1.324   1.315   1.348   1.346   1.341   1.343   1.359   1.340   1.344   1.326   1.314   1.325   1.322   1.348   1.361   1.380
    87.60    1.347   1.338   1.351   1.359   1.356   1.364   1.356   1.350   1.326   1.349   1.344   1.373   1.368   1.358   1.330   1.296   1.323   1.336   1.326   1.347   1.352   1.353   1.349   1.338   1.343   1.336   1.320   1.348   1.317   1.328   1.332   1.331   1.362
    83.54    1.361   1.331   1.352   1.371   1.349   1.359   1.337   1.335   1.313   1.317   1.333   1.342   1.338   1.348   1.351   1.334   1.350   1.344   1.350   1.343   1.364   1.336   1.335   1.345   1.340   1.336   1.318   1.318   1.313   1.302   1.317   1.335   1.353
    79.48    1.367   1.334   1.339   1.341   1.312   1.318   1.312   1.291   1.308   1.342   1.344   1.329   1.331   1.340   1.357   1.359   1.389   1.367   1.366   1.354   1.350   1.355   1.357   1.369   1.353   1.326   1.300   1.294   1.329   1.329   1.337   1.326   1.333
    75.41    1.364   1.340   1.347   1.334   1.325   1.293   1.303   1.306   1.300   1.337   1.338   1.356   1.330   1.335   1.359   1.369   1.351   1.354   1.353   1.366   1.346   1.339   1.347   1.341   1.309   1.308   1.308   1.303   1.336   1.323   1.307   1.334   1.364
    71.35    1.343   1.354   1.354   1.318   1.295   1.296   1.313   1.303   1.325   1.326   1.337   1.353   1.332   1.350   1.366   1.370   1.371   1.348   1.338   1.362   1.371   1.368   1.347   1.331   1.313   1.302   1.299   1.311   1.325   1.313   1.324   1.339   1.360
    67.29    1.342   1.350   1.340   1.336   1.329   1.329   1.309   1.339   1.309   1.331   1.329   1.327   1.331   1.335   1.336   1.362   1.359   1.360   1.368   1.355   1.382   1.349   1.323   1.326   1.314   1.325   1.320   1.318   1.350   1.327   1.316   1.326   1.368
    63.23    1.330   1.326   1.338   1.368   1.347   1.331   1.365   1.373   1.346   1.329   1.335   1.332   1.328   1.350   1.355   1.367   1.360   1.388   1.372   1.375   1.360   1.351   1.346   1.351   1.314   1.308   1.303   1.313   1.334   1.327   1.319   1.325   1.350
    59.16    1.335   1.348   1.342   1.375   1.351   1.338   1.363   1.357   1.356   1.345   1.360   1.358   1.334   1.340   1.336   1.339   1.369   1.395   1.376   1.356   1.362   1.347   1.320   1.344   1.332   1.334   1.315   1.316   1.304   1.321   1.310   1.294   1.321
    55.10    1.349   1.348   1.352   1.340   1.338   1.348   1.362   1.378   1.340   1.338   1.349   1.365   1.346   1.333   1.336   1.367   1.345   1.360   1.365   1.357   1.366   1.347   1.334   1.340   1.324   1.343   1.316   1.324   1.321   1.319   1.307   1.272   1.284
    51.04    1.372   1.369   1.355   1.343   1.330   1.358   1.378   1.348   1.327   1.325   1.327   1.350   1.350   1.355   1.362   1.372   1.353   1.352   1.346   1.332   1.365   1.330   1.345   1.333   1.338   1.323   1.339   1.337   1.354   1.321   1.297   1.293   1.294
    46.98    1.375   1.357   1.345   1.330   1.339   1.359   1.370   1.365   1.324   1.308   1.316   1.356   1.358   1.384   1.365   1.375   1.340   1.353   1.350   1.342   1.325   1.311   1.318   1.332   1.328   1.319   1.350   1.350   1.335   1.332   1.319   1.297   1.276
    42.91    1.381   1.347   1.344   1.335   1.363   1.329   1.340   1.327   1.309   1.323   1.343   1.346   1.381   1.352   1.362   1.363   1.347   1.324   1.332   1.328   1.331   1.324   1.326   1.323   1.331   1.339   1.354   1.361   1.323   1.318   1.315   1.317   1.308
    38.85    1.329   1.331   1.297   1.325   1.307   1.328   1.326   1.331   1.301   1.333   1.371   1.360   1.349   1.361   1.361   1.340   1.324   1.351   1.315   1.315   1.341   1.327   1.315   1.332   1.341   1.340   1.343   1.355   1.351   1.355   1.335   1.313   1.319
    34.79    1.322   1.313   1.316   1.313   1.286   1.293   1.305   1.313   1.313   1.332   1.338   1.386   1.369   1.340   1.363   1.363   1.354   1.364   1.327   1.314   1.338   1.329   1.343   1.342   1.337   1.330   1.346   1.339   1.349   1.347   1.320   1.319   1.283
    30.73    1.312   1.289   1.300   1.309   1.293   1.286   1.284   1.313   1.303   1.328   1.355   1.362   1.373   1.367   1.380   1.370   1.372   1.346   1.335   1.342   1.359   1.337   1.317   1.333   1.346   1.352   1.339   1.349   1.349   1.337   1.315   1.315   1.299
    26.66    1.346   1.318   1.316   1.313   1.321   1.285   1.294   1.324   1.332   1.333   1.357   1.351   1.368   1.371   1.363   1.358   1.352   1.336   1.329   1.326   1.346   1.340   1.347   1.342   1.335   1.366   1.360   1.354   1.334   1.327   1.323   1.336   1.317
    22.60    1.328   1.321   1.286   1.284   1.292   1.298   1.331   1.345   1.350   1.348   1.373   1.336   1.362   1.349   1.306   1.345   1.345   1.335   1.339   1.333   1.346   1.335   1.339   1.332   1.344   1.334   1.344   1.329   1.318   1.333   1.345   1.316   1.336

   Height   Standard deviation at grid points for the v component:
   152.60    0.987   0.968   0.976   0.974   0.984   0.975   0.973   0.978   0.998   1.003   1.010   1.015   1.005   1.010   0.988   0.981   0.986   0.991   0.995   1.002   1.010   1.010   0.993   0.984   1.001   1.010   1.008   1.012   1.002   0.980   0.979   0.988   0.991
   148.54    0.976   0.988   0.977   0.976   0.983   0.980   0.976   0.979   0.994   1.005   1.004   1.004   1.000   1.011   0.995   0.989   0.984   0.981   0.982   0.989   1.001   0.996   0.993   0.990   0.996   1.005   1.010   1.012   1.007   0.991   0.978   0.986   0.991
   144.48    0.993   1.000   0.991   0.988   0.980   0.990   0.987   0.988   1.002   1.004   0.981   0.985   0.998   1.007   0.986   0.962   0.968   0.979   0.968   0.978   0.993   0.984   0.984   0.986   0.983   1.009   1.008   1.003   1.003   0.995   0.978   0.980   0.986
   140.41    0.993   1.003   1.005   0.996   0.998   0.985   1.001   0.991   1.007   0.997   1.003   0.990   0.991   0.997   0.968   0.961   0.987   0.980   0.967   0.980   0.993   0.997   0.997   0.989   0.996   1.006   1.007   1.008   1.008   0.990   0.992   0.993   0.962
   136.35    1.006   1.002   0.996   0.995   0.993   1.013   1.018   1.026   1.004   0.999   1.004   0.988   0.997   1.001   0.977   0.964   0.956   0.978   0.984   0.979   0.985   0.990   0.994   1.001   0.989   0.996   1.014   1.011   1.000   0.987   0.986   0.994   0.967
   132.29    1.004   1.007   1.004   1.000   0.991   1.014   1.014   1.016   1.012   1.012   1.010   1.001   0.994   1.004   0.996   0.976   0.958   0.973   0.982   1.008   0.994   1.002   1.002   1.013   0.994   0.985   1.009   0.995   0.993   0.997   0.991   1.000   0.977
   128.23    1.007   1.025   1.019   1.028   1.007   1.002   1.003   1.018   1.017   1.010   1.011   1.020   1.002   1.004   1.013   0.990   0.982   0.970   0.973   0.994   0.984   1.007   0.983   0.985   0.978   0.990   1.004   0.989   0.993   0.989   0.997   0.991   0.968
   124.16    1.005   1.021   1.022   1.015   1.014   1.013   0.997   1.000   1.026   1.029   1.029   1.015   1.015   1.016   1.013   0.999   0.989   0.980   0.961   0.988   0.998   0.987   0.975   0.976   0.990   0.989   0.982   0.995   0.997   1.003   1.007   0.987   0.966
   120.10    1.022   1.027   1.033   1.021   1.028   1.014   0.998   1.020   1.020   1.036   1.019   1.032   1.037   1.013   1.011   1.005   0.980   0.970   0.975   0.997   0.998   1.006   0.977   0.977   0.982   0.972   0.966   0.977   0.995   0.991   1.000   0.965   0.974
   116.04    1.029   1.033   1.018   1.036   1.019   1.025   1.025   1.025   1.024   1.020   1.029   1.018   1.013   1.021   1.023   1.018   0.994   0.991   0.989   0.987   0.993   0.989   0.985   0.966   0.964   0.973   0.973   0.971   0.975   0.968   0.976   0.969   0.963
   111.98    1.024   1.028   1.023   1.044   1.045   1.022   1.027   1.025   1.020   1.028   1.023   1.026   1.029   1.023   1.022   1.017   1.013   1.010   1.004   0.988   0.988   0.973   0.972   0.972   0.969   0.979   0.981   0.956   0.958   0.963   0.972   0.976   0.965
   107.91    1.020   1.012   1.017   1.020   1.052   1.041   1.042   1.031   1.018   1.026   1.028   1.016   1.017   1.031   1.029   1.013   1.006   0.998   1.001   0.989   0.978   0.969   0.965   0.973   0.982   0.973   0.974   0.961   0.968   0.983   0.990   0.974   0.981
   103.85    0.999   0.993   1.005   1.015   1.027   1.045   1.048   1.024   1.024   1.015   1.018   1.017   1.013   1.029   1.014   1.003   1.000   0.997   0.989   0.970   0.973   0.952   0.974   0.979   0.983   0.972   0.973   0.980   0.977   0.984   0.991   0.984   0.976
    99.79    1.000   0.989   0.995   1.023   1.024   1.019   1.022   1.020   1.009   1.022   1.015   1.017   1.013   1.015   1.013   0.992   0.994   1.007   0.987   0.974   0.961   0.970   0.981   0.989   0.983   0.974   0.988   0.990   0.984   0.979   0.987   0.983   0.995
    95.73    0.996   0.998   1.016   1.022   1.029   1.027   1.024   1.021   1.017   1.009   1.026   1.008   1.018   1.009   1.008   1.013   1.009   0.991   0.993   0.996   0.977   0.968   0.974   0.993   0.983   0.981   0.988   0.988   0.996   1.004   0.991   0.990   0.980
    91.66    1.015   1.016   1.020   1.024   1.036   1.015   1.021   1.028   1.030   1.036   1.013   1.032   1.028   1.010   1.014   1.011   1.001   1.011   1.015   1.004   0.995   0.993   0.991   1.004   0.992   0.985   0.988   0.992   0.994   1.000   0.993   0.997   0.969
    87.60    1.021   1.011   1.026   1.028   1.034   1.023   1.015   1.033   1.029   1.023   1.027   1.035   1.028   1.029   1.015   1.018   1.018   1.020   1.015   1.007   1.011   1.004   0.997   1.001   1.001   0.994   0.998   1.011   1.001   0.999   0.988   0.982   0.979
    83.54    1.000   1.014   1.034   1.032   1.024   1.019   1.007   1.022   1.021   1.024   1.018   1.016   1.025   1.022   1.033   1.042   1.023   1.023   1.014   1.011   1.013   0.997   1.006   0.988   1.010   1.011   1.001   1.004   1.003   0.994   0.991   0.995   0.991
    79.48    0.999   1.008   1.021   1.025   1.026   1.039   1.029   1.015   1.005   1.024   1.018   1.006   1.017   1.011   1.029   1.023   1.017   1.016   1.022   1.013   1.010   1.002   0.983   0.992   1.005   0.999   1.001   1.001   0.996   1.004   1.010   1.009   0.980
    75.41    1.013   1.023   1.009   1.009   1.028   1.033   1.020   1.015   1.004   1.006   1.010   1.015   1.023   1.017   1.024   1.033   1.019   1.023   1.008   0.997   0.985   0.991   0.986   0.985   0.998   0.998   1.002   1.000   0.985   0.997   1.017   1.016   0.993
    71.35    1.018   1.015   1.002   1.020   1.018   1.015   1.005   1.001   0.992   1.012   1.038   1.022   1.018   1.027   1.025   1.023   1.008   1.014   0.988   0.980   0.982   0.978   0.972   0.987   0.999   1.003   1.003   0.989   0.996   0.998   0.996   1.002   1.002
    67.29    1.021   1.004   1.008   1.021   1.010   1.003   1.012   1.013   1.015   1.023   1.028   1.042   1.025   1.014   1.024   1.023   1.036   1.017   0.996   0.977   0.958   0.970   0.977   0.989   0.977   0.989   0.996   0.984   0.985   0.987   0.993   0.994   0.999
    63.23    1.015   1.001   1.005   0.999   1.003   1.018   1.010   1.027   1.038   1.023   1.025   1.033   1.027   1.028   1.026   1.024   1.033   1.022   1.014   0.994   0.982   0.992   1.001   1.001   1.000   1.002   0.983   0.982   0.986   0.993   0.990   0.995   1.000
    59.16    1.010   1.009   1.006   0.993   1.001   1.024   1.023   1.032   1.030   1.027   1.028   1.017   1.024   1.024   1.014   1.027   1.032   1.023   1.019   1.006   0.998   0.992   1.011   1.005   0.990   1.008   0.992   0.976   0.984   0.999   1.013   1.006   0.999
    55.10    1.015   1.015   1.007   1.014   1.015   1.027   1.028   1.021   1.016   1.003   1.007   1.017   1.026   1.028   1.024   1.022   1.010   1.025   1.021   1.015   1.009   1.013   1.016   1.014   1.004   1.002   0.998   0.996   0.973   0.999   1.000   0.998   0.998
    51.04    1.019   1.027   1.000   1.006   1.017   1.016   1.020   1.033   1.011   1.021   1.019   1.020   1.031   1.025   1.036   1.015   1.015   1.017   1.021   1.013   1.006   1.011   1.010   1.008   1.014   1.008   1.003   0.997   0.993   1.001   0.998   0.996   1.002
    46.98    1.017   1.016   0.995   0.994   0.995   0.994   1.009   1.013   1.016   1.013   1.020   1.012   1.022   1.019   1.022   1.015   1.025   1.019   1.014   1.026   1.022   1.022   1.012   1.006   1.013   1.020   1.012   1.001   0.990   0.983   1.001   0.985   0.992
    42.91    1.009   0.995   0.993   0.981   0.991   0.998   1.007   1.020   1.029   1.018   1.016   1.016   1.024   1.023   1.016   1.010   1.012   1.026   1.028   1.021   1.025   1.035   1.016   1.001   1.010   1.013   0.995   1.002   0.998   1.000   0.985   1.002   1.000
    38.85    1.001   0.992   0.980   0.985   0.990   1.005   1.014   1.008   1.027   1.024   1.020   1.007   1.025   1.017   1.019   1.021   1.021   1.018   1.019   1.008   1.017   1.033   1.022   1.006   1.007   0.998   0.998   0.998   1.004   0.997   1.007   1.014   1.004
    34.79    1.011   1.001   0.978   0.985   0.977   1.000   1.001   1.010   1.024   1.024   1.018   1.007   1.018   1.007   1.015   1.018   1.001   1.023   1.022   1.025   1.014   1.022   1.019   1.006   0.995   0.998   1.005   1.008   1.005   0.999   1.012   1.018   1.009
    30.73    1.003   0.995   0.992   0.977   0.995   0.992   1.009   1.008   1.016   1.021   1.022   1.014   1.008   1.003   0.996   1.010   1.009   1.002   1.011   1.032   1.034   1.042   1.011   1.014   1.013   1.009   0.996   1.010   1.005   1.003   0.997   1.005   1.008
    26.66    0.997   1.001   1.001   0.997   0.984   0.997   0.999   1.002   1.012   1.034   1.014   0.992   1.013   1.014   1.018   1.013   1.000   1.010   1.011   1.018   1.026   1.030   1.021   1.014   1.014   1.010   1.003   0.996   1.003   0.998   0.992   0.990   0.998
    22.60    1.006   1.005   1.007   1.004   0.987   0.993   0.997   1.003   1.002   1.005   1.002   1.004   1.004   1.012   1.010   1.009   1.006   1.019   1.018   1.023   1.016   1.019   1.003   1.000   1.006   1.013   1.018   1.002   1.005   1.003   0.988   0.984   0.978

   Height   Standard deviation at grid points for the w component:
   152.60    0.773   0.773   0.771   0.782   0.790   0.791   0.794   0.794   0.787   0.780   0.785   0.776   0.793   0.793   0.811   0.821   0.809   0.817   0.825   0.823   0.837   0.834   0.838   0.834   0.819   0.822   0.814   0.813   0.818   0.813   0.803   0.805   0.804
   148.54    0.768   0.767   0.783   0.792   0.786   0.797   0.801   0.792   0.782   0.776   0.784   0.779   0.792   0.797   0.809   0.811   0.813   0.811   0.818   0.815   0.829   0.832   0.833   0.820   0.818   0.813   0.801   0.812   0.820   0.813   0.804   0.806   0.803
   144.48    0.769   0.779   0.782   0.787   0.776   0.798   0.792   0.792   0.786   0.777   0.779   0.781   0.781   0.790   0.799   0.814   0.819   0.812   0.803   0.806   0.812   0.819   0.832   0.826   0.815   0.810   0.812   0.810   0.818   0.817   0.809   0.804   0.806
   140.41    0.777   0.771   0.776   0.778   0.781   0.800   0.798   0.803   0.789   0.783   0.776   0.787   0.774   0.792   0.805   0.810   0.812   0.802   0.794   0.807   0.818   0.820   0.825   0.822   0.823   0.819   0.811   0.801   0.801   0.798   0.796   0.807   0.795
   136.35    0.777   0.770   0.783   0.768   0.786   0.792   0.799   0.799   0.800   0.794   0.791   0.785   0.793   0.790   0.793   0.788   0.805   0.809   0.808   0.797   0.810   0.823   0.823   0.817   0.813   0.812   0.807   0.788   0.798   0.797   0.792   0.790   0.791
   132.29    0.769   0.778   0.783   0.779   0.784   0.784   0.779   0.789   0.796   0.798   0.803   0.791   0.789   0.780   0.787   0.796   0.795   0.810   0.800   0.802   0.798   0.817   0.814   0.811   0.810   0.806   0.797   0.792   0.802   0.799   0.783   0.784   0.792
   128.23    0.788   0.781   0.781   0.785   0.783   0.780   0.786   0.783   0.790   0.803   0.800   0.795   0.784   0.778   0.775   0.792   0.800   0.807   0.803   0.795   0.795   0.804   0.814   0.813   0.816   0.803   0.795   0.796   0.797   0.788   0.787   0.786   0.786
   124.16    0.793   0.785   0.785   0.776   0.770   0.776   0.774   0.781   0.794   0.801   0.801   0.790   0.783   0.783   0.787   0.793   0.795   0.798   0.797   0.792   0.807   0.809   0.810   0.806   0.797   0.802   0.803   0.794   0.794   0.798   0.794   0.790   0.789
   120.10    0.790   0.792   0.792   0.784   0.784   0.768   0.781   0.796   0.797   0.808   0.803   0.804   0.790   0.799   0.797   0.811   0.800   0.808   0.804   0.790   0.806   0.815   0.817   0.813   0.806   0.794   0.795   0.786   0.791   0.797   0.792   0.783   0.776
   116.04    0.801   0.787   0.796   0.787   0.777   0.776   0.796   0.801   0.803   0.808   0.802   0.803   0.804   0.803   0.797   0.798   0.806   0.806   0.807   0.807   0.815   0.815   0.806   0.809   0.804   0.795   0.790   0.790   0.799   0.787   0.787   0.787   0.791
   111.98    0.807   0.798   0.791   0.790   0.788   0.790   0.801   0.810   0.805   0.791   0.789   0.813   0.809   0.796   0.796   0.798   0.800   0.805   0.817   0.817   0.815   0.818   0.818   0.794   0.796   0.799   0.794   0.791   0.786   0.785   0.793   0.804   0.801
   107.91    0.803   0.804   0.800   0.794   0.788   0.797   0.801   0.807   0.803   0.789   0.789   0.806   0.814   0.803   0.794   0.797   0.799   0.805   0.814   0.813   0.810   0.822   0.829   0.817   0.804   0.812   0.801   0.788   0.788   0.786   0.785   0.796   0.804
   103.85    0.805   0.806   0.805   0.802   0.811   0.797   0.806   0.810   0.794   0.793   0.787   0.803   0.810   0.797   0.800   0.797   0.803   0.811   0.809   0.821   0.826   0.822   0.835   0.833   0.817   0.812   0.794   0.781   0.788   0.786   0.782   0.790   0.788
    99.79    0.803   0.805   0.801   0.797   0.804   0.802   0.813   0.809   0.796   0.799   0.799   0.798   0.801   0.805   0.799   0.807   0.809   0.808   0.811   0.822   0.814   0.830   0.840   0.833   0.825   0.814   0.798   0.784   0.789   0.788   0.783   0.794   0.780
    95.73    0.810   0.798   0.795   0.800   0.802   0.805   0.815   0.808   0.800   0.792   0.800   0.803   0.813   0.819   0.806   0.806   0.798   0.802   0.800   0.803   0.811   0.821   0.835   0.825   0.819   0.813   0.804   0.798   0.784   0.786   0.777   0.783   0.773
    91.66    0.804   0.792   0.798   0.805   0.806   0.806   0.809   0.803   0.801   0.796   0.796   0.801   0.815   0.832   0.815   0.806   0.809   0.798   0.806   0.825   0.820   0.819   0.819   0.814   0.808   0.807   0.803   0.789   0.779   0.770   0.775   0.768   0.786
    87.60    0.798   0.798   0.801   0.808   0.811   0.801   0.796   0.802   0.797   0.794   0.797   0.797   0.803   0.813   0.809   0.807   0.811   0.813   0.803   0.807   0.813   0.811   0.811   0.800   0.803   0.793   0.780   0.777   0.775   0.771   0.784   0.775   0.778
    83.54    0.801   0.807   0.804   0.812   0.821   0.808   0.794   0.800   0.786   0.799   0.795   0.785   0.796   0.807   0.802   0.804   0.822   0.821   0.810   0.804   0.815   0.811   0.816   0.810   0.796   0.782   0.784   0.775   0.774   0.780   0.773   0.760   0.783
    79.48    0.809   0.808   0.806   0.805   0.817   0.808   0.812   0.800   0.800   0.794   0.794   0.803   0.787   0.799   0.795   0.809   0.815   0.808   0.802   0.797   0.798   0.802   0.808   0.795   0.788   0.779   0.789   0.774   0.776   0.775   0.767   0.760   0.768
    75.41    0.812   0.799   0.804   0.805   0.816   0.810   0.819   0.807   0.808   0.798   0.792   0.801   0.794   0.788   0.796   0.805   0.804   0.798   0.800   0.794   0.791   0.788   0.792   0.787   0.785   0.771   0.776   0.775   0.783   0.778   0.767   0.769   0.770
    71.35    0.804   0.808   0.800   0.803   0.803   0.804   0.814   0.805   0.791   0.799   0.791   0.799   0.797   0.802   0.799   0.808   0.800   0.794   0.783   0.788   0.787   0.789   0.796   0.800   0.793   0.779   0.775   0.772   0.780   0.786   0.779   0.776   0.780
    67.29    0.798   0.792   0.792   0.798   0.803   0.816   0.797   0.796   0.793   0.798   0.790   0.783   0.796   0.796   0.801   0.803   0.793   0.789   0.777   0.787   0.794   0.793   0.790   0.786   0.796   0.786   0.783   0.775   0.778   0.781   0.778   0.770   0.769
    63.23    0.796   0.792   0.787   0.804   0.808   0.805   0.800   0.799   0.807   0.809   0.794   0.791   0.784   0.794   0.809   0.806   0.801   0.788   0.793   0.797   0.801   0.793   0.791   0.791   0.796   0.803   0.803   0.787   0.786   0.778   0.770   0.772   0.767
    59.16    0.795   0.801   0.797   0.811   0.797   0.801   0.797   0.797   0.801   0.804   0.804   0.802   0.798   0.792   0.803   0.804   0.798   0.799   0.790   0.796   0.795   0.789   0.794   0.779   0.792   0.805   0.803   0.806   0.806   0.792   0.787   0.774   0.771
    55.10    0.800   0.788   0.798   0.797   0.798   0.802   0.798   0.804   0.804   0.796   0.795   0.787   0.789   0.790   0.795   0.788   0.790   0.785   0.787   0.799   0.790   0.787   0.792   0.796   0.793   0.805   0.810   0.806   0.799   0.796   0.790   0.780   0.772
    51.04    0.800   0.784   0.795   0.812   0.809   0.810   0.804   0.803   0.792   0.801   0.790   0.781   0.781   0.778   0.791   0.779   0.786   0.786   0.783   0.792   0.796   0.792   0.797   0.803   0.802   0.805   0.807   0.806   0.798   0.793   0.793   0.790   0.783
    46.98    0.801   0.796   0.797   0.811   0.797   0.798   0.794   0.803   0.806   0.802   0.797   0.794   0.782   0.780   0.775   0.782   0.786   0.793   0.796   0.786   0.782   0.779   0.794   0.805   0.797   0.809   0.812   0.801   0.793   0.795   0.800   0.791   0.794
    42.91    0.789   0.781   0.800   0.804   0.798   0.790   0.790   0.793   0.795   0.803   0.793   0.794   0.797   0.788   0.781   0.783   0.790   0.789   0.793   0.784   0.770   0.781   0.781   0.792   0.804   0.800   0.802   0.799   0.792   0.794   0.798   0.801   0.790
    38.85    0.782   0.792   0.800   0.797   0.799   0.789   0.788   0.790   0.791   0.803   0.795   0.792   0.788   0.789   0.787   0.785   0.781   0.781   0.791   0.784   0.785   0.792   0.797   0.800   0.795   0.796   0.808   0.803   0.800   0.801   0.811   0.790   0.787
    34.79    0.795   0.795   0.803   0.806   0.796   0.799   0.788   0.792   0.801   0.792   0.787   0.793   0.786   0.785   0.781   0.777   0.787   0.777   0.785   0.777   0.779   0.782   0.790   0.799   0.799   0.793   0.799   0.799   0.802   0.810   0.808   0.801   0.797
    30.73    0.787   0.796   0.798   0.794   0.786   0.789   0.789   0.788   0.784   0.781   0.798   0.789   0.777   0.781   0.783   0.775   0.770   0.787   0.783   0.782   0.781   0.783   0.783   0.787   0.800   0.791   0.792   0.787   0.798   0.798   0.800   0.795   0.794
    26.66    0.788   0.786   0.787   0.796   0.800   0.791   0.787   0.780   0.777   0.787   0.792   0.780   0.777   0.782   0.787   0.775   0.779   0.786   0.785   0.788   0.792   0.781   0.772   0.788   0.791   0.797   0.795   0.777   0.789   0.790   0.786   0.789   0.785
    22.60    0.786   0.779   0.790   0.794   0.797   0.795   0.791   0.781   0.778   0.783   0.785   0.779   0.777   0.777   0.782   0.778   0.776   0.782   0.775   0.786   0.783   0.775   0.776   0.781   0.791   0.789   0.782   0.776   0.787   0.784   0.779   0.786   0.782

   Mean standard deviation across all grid points:
      u component:    1.346 m/s
      v component:    1.004 m/s
      w component:    0.796 m/s


U-component (X) statistics from the hub grid point:

   Mean =  12.0000 m/s
   TI   =  11.0285 %

Nyquist frequency of turbulent wind field =        10.000 Hz


Processing complete.  2792 CPU seconds used.
