
This summary file was generated by TurbSim (v1.06.00, 21-Sep-2012) on 15-Sep-2020 at 15:08:30.


Runtime Options:

  65432154  Random seed #1
    RANLUX  Type of random number generator
         F  Output binary HH turbulence parameters?
         F  Output formatted turbulence parameters?
         F  Output AeroDyn HH files?
         T  Output AeroDyn FF files?
         F  Output BLADED FF files?
         T  Output tower data?
         F  Output formatted FF files?
         F  Output coherent turbulence time step file?
         T  Clockwise rotation when looking downwind?
 0 -  NONE  IEC turbulence models scaled to exact specified standard deviation


Turbine/Model Specifications:

        33  Vertical grid-point matrix dimension
        33  Horizontal grid-point matrix dimension
     0.050  Time step [seconds]
   370.000  Analysis time [seconds]
   370.000  Usable output time [seconds]
    87.600  Hub height [m]
   130.000  Grid height [m]
   130.000  Grid width [m]
     0.000  Vertical flow angle [degrees]
     0.000  Horizontal flow angle [degrees]


Meteorological Boundary Conditions:

    SMOOTH  RISO Smooth Terrain spectral model
       N/A  IEC standard
       N/A  IEC turbulence characteristic
       N/A  IEC turbulence type
       N/A  IEC Extreme Turbulence Model (ETM) "c" parameter [m/s]
       IEC  Wind profile type
    87.600  Reference height [m]
    24.000  Reference wind speed [m/s]
       N/A  Jet height [m]
     0.143  Power law exponent
     0.010  Surface roughness length [m]


Non-IEC Meteorological Boundary Conditions:

    45.000  Site latitude [degrees]
     0.050  Gradient Richardson number
     1.020  Friction or shear velocity [m/s]
       N/A  Mixing layer depth [m]
    -1.041  Mean hub u'w' Reynolds stress
       N/A  Mean hub u'v' Reynolds stress
       N/A  Mean hub v'w' Reynolds stress
(   24.000,  0.00    )  u-component coherence parameters
(   18.000,  0.00    )  v-component coherence parameters
(   18.000,  0.00    )  w-component coherence parameters
     0.000  Coherence exponent


You have requested that the following file(s) be generated:

   unsteady_tmp_24.bts (AeroDyn/TurbSim full-field wind file)


Turbulence Simulation Scaling Parameter Summary:

   Turbulence model used                            =  RISO Smooth Terrain
   Gradient Richardson number                       =    0.050
   Monin-Obukhov (M-O) z/L parameter                =    0.067
   Monin-Obukhov (M-O) length scale                 = 1314.000 m
   Mean wind speed at hub height                    =   24.000 m/s

   Wind profile type                                =  Power law on rotor disk, logarithmic elsewhere
   Power law exponent                               =    0.143
   Mean shear across rotor disk                     =    0.044 (m/s)/m
   Assumed rotor diameter                           =  130.000 m
   Surface roughness length                         =    0.010 m

   Number of time steps in the FFT                  =     7524
   Number of time steps output                      =     7509


Mean Flow Angles:

   Vertical   =   0.0 degrees
   Horizontal =   0.0 degrees

Mean Wind Speed Profile:

   Height    Wind Speed   Horizontal Angle  U-comp (X)   V-comp (Y)   W-comp (Z)
     (m)        (m/s)         (degrees)       (m/s)        (m/s)        (m/s)   
   ------    ----------   ----------------  ----------   ----------   ----------
    152.6       25.47            0.00         25.47         0.00         0.00
    148.5       25.88            0.00         25.88         0.00         0.00
    144.5       25.78            0.00         25.78         0.00         0.00
    140.4       25.68            0.00         25.68         0.00         0.00
    136.4       25.57            0.00         25.57         0.00         0.00
    132.3       25.46            0.00         25.46         0.00         0.00
    128.2       25.34            0.00         25.34         0.00         0.00
    124.2       25.23            0.00         25.23         0.00         0.00
    120.1       25.11            0.00         25.11         0.00         0.00
    116.0       24.98            0.00         24.98         0.00         0.00
    112.0       24.86            0.00         24.86         0.00         0.00
    107.9       24.73            0.00         24.73         0.00         0.00
    103.9       24.59            0.00         24.59         0.00         0.00
     99.8       24.45            0.00         24.45         0.00         0.00
     95.7       24.31            0.00         24.31         0.00         0.00
     91.7       24.16            0.00         24.16         0.00         0.00
     87.6       24.00            0.00         24.00         0.00         0.00
     83.5       23.84            0.00         23.84         0.00         0.00
     79.5       23.67            0.00         23.67         0.00         0.00
     75.4       23.49            0.00         23.49         0.00         0.00
     71.4       23.31            0.00         23.31         0.00         0.00
     67.3       23.11            0.00         23.11         0.00         0.00
     63.2       22.91            0.00         22.91         0.00         0.00
     59.2       22.69            0.00         22.69         0.00         0.00
     55.1       22.46            0.00         22.46         0.00         0.00
     51.0       22.22            0.00         22.22         0.00         0.00
     47.0       21.95            0.00         21.95         0.00         0.00
     42.9       21.67            0.00         21.67         0.00         0.00
     38.9       21.37            0.00         21.37         0.00         0.00
     34.8       21.03            0.00         21.03         0.00         0.00
     30.7       20.66            0.00         20.66         0.00         0.00
     26.7       20.25            0.00         20.25         0.00         0.00
     22.6       19.77            0.00         19.77         0.00         0.00
     18.5       19.89            0.00         19.89         0.00         0.00
     14.5       19.24            0.00         19.24         0.00         0.00
     10.4       18.37            0.00         18.37         0.00         0.00
      6.4       17.06            0.00         17.06         0.00         0.00
      2.3       14.36            0.00         14.36         0.00         0.00


Harvested Random Seeds after Generation of the Random Numbers:

    114723031 K1
            0 K2


Scaling statistics from the hub grid point:

   Cross-Component  Scaling Factor
   ---------------  --------------
   u'w'               -0.27023E+00
   u'v'                0.00000E+00
   v'w'                0.00000E+00


Hub-Height Simulated Turbulence Statistical Summary:

   Type of Wind        Min (m/s)   Mean (m/s)    Max (m/s)  Sigma (m/s)       TI (%)
   ----------------    ---------   ----------    ---------  -----------       ------
   Longitudinal (u)        14.54        24.00        31.81        2.309        9.621
   Lateral (v)             -7.34         0.00         6.38        1.872        7.800
   Vertical (w)            -6.56         0.00         5.17        1.560        6.500
   U component             14.54        24.00        31.81        2.309        9.621
   V component             -7.34         0.00         6.38        1.872        7.800
   W component             -6.56         0.00         5.17        1.560        6.500
   Horizontal (U&V)        14.54        24.07        31.88        2.306        9.580
   Total                   14.99        24.12        32.00        2.303        9.548

                       Min Reynolds     Mean Reynolds    Max Reynolds    Correlation
   Product             Stress (m/s)^2   Stress (m/s)^2   Stress (m/s)^2  Coefficient
   ----------------    --------------   --------------   --------------  -----------
   u'w'                    -34.527            -1.041            13.742        -0.289
   u'v'                    -26.452             0.426            28.349         0.098
   v'w'                    -19.596             0.151            33.072         0.052


   Friction Velocity (Ustar)  =      1.020 m/s
   Maximum Instantaneous TKE  =     51.430 (m/s)^2
   Maximum Instantaneous CTKE =     18.389 (m/s)^2


Grid Point Variance Summary:

   Y-coord  -65.00  -60.94  -56.88  -52.81  -48.75  -44.69  -40.62  -36.56  -32.50  -28.44  -24.38  -20.31  -16.25  -12.19   -8.12   -4.06    0.00    4.06    8.12   12.19   16.25   20.31   24.38   28.44   32.50   36.56   40.62   44.69   48.75   52.81   56.88   60.94   65.00

   Height   Standard deviation at grid points for the u component:
   152.60    3.130   3.143   2.874   2.824   2.916   3.028   2.969   2.949   2.884   2.775   2.668   2.702   2.599   2.500   2.273   2.361   2.145   2.192   2.185   2.351   2.344   2.345   2.356   2.432   2.584   2.560   2.654   2.516   2.467   2.565   2.414   2.357   2.336
   148.54    3.133   3.014   2.830   2.877   2.917   2.765   2.958   2.878   2.909   2.852   2.653   2.619   2.598   2.397   2.376   2.325   2.225   2.132   2.166   2.212   2.287   2.413   2.320   2.273   2.404   2.289   2.358   2.499   2.483   2.413   2.340   2.311   2.400
   144.48    3.013   2.909   2.779   2.769   2.901   2.815   2.777   2.829   2.865   2.879   2.645   2.463   2.495   2.444   2.396   2.335   2.261   2.306   2.200   2.167   2.109   2.193   2.172   2.168   2.283   2.163   2.240   2.432   2.300   2.342   2.386   2.286   2.334
   140.41    3.010   2.918   2.816   2.780   2.776   2.729   2.843   2.771   2.779   2.704   2.683   2.497   2.514   2.555   2.376   2.240   2.276   2.302   2.202   2.123   2.038   2.028   1.942   2.026   2.007   2.125   2.271   2.223   2.302   2.271   2.178   2.211   2.273
   136.35    2.973   2.945   2.959   2.905   2.884   3.051   2.921   2.747   2.723   2.654   2.598   2.561   2.529   2.325   2.360   2.247   2.320   2.307   2.154   2.032   1.950   1.993   1.941   1.995   1.975   1.995   2.178   2.123   2.184   2.291   2.340   2.188   2.158
   132.29    2.748   2.887   2.847   2.792   2.880   2.916   2.894   2.874   2.695   2.607   2.624   2.475   2.327   2.341   2.339   2.283   2.269   2.261   2.090   1.976   2.091   2.010   2.076   2.094   2.048   1.992   2.135   2.239   2.246   2.335   2.286   2.334   2.197
   128.23    2.810   2.830   2.813   2.916   2.825   2.718   2.834   2.682   2.560   2.464   2.430   2.353   2.299   2.310   2.347   2.371   2.272   2.189   2.129   2.016   2.053   2.054   2.080   2.006   2.001   2.049   1.958   2.052   2.229   2.364   2.179   2.208   2.190
   124.16    2.796   2.726   2.816   2.769   2.907   2.759   2.653   2.533   2.492   2.530   2.488   2.400   2.234   2.333   2.390   2.353   2.329   2.212   2.075   2.074   2.009   2.037   2.105   2.080   2.053   1.994   1.993   2.021   2.221   2.319   2.244   2.065   2.170
   120.10    2.821   2.792   2.845   2.778   2.713   2.715   2.581   2.450   2.532   2.490   2.462   2.298   2.231   2.331   2.415   2.320   2.477   2.388   2.076   2.116   2.112   2.154   2.185   2.121   2.136   2.131   2.205   2.155   2.341   2.429   2.315   2.428   2.350
   116.04    2.714   2.907   2.670   2.697   2.703   2.617   2.678   2.605   2.511   2.559   2.533   2.463   2.362   2.381   2.333   2.314   2.475   2.395   2.186   2.173   2.105   2.116   2.123   2.107   2.152   2.273   2.403   2.280   2.463   2.551   2.685   2.522   2.398
   111.98    2.887   2.971   3.113   2.829   2.659   2.690   2.659   2.682   2.547   2.548   2.480   2.368   2.409   2.482   2.375   2.355   2.284   2.391   2.226   2.250   2.284   2.127   2.053   2.083   2.114   2.285   2.508   2.378   2.296   2.384   2.562   2.571   2.556
   107.91    2.837   2.994   2.972   2.891   2.689   2.631   2.548   2.563   2.638   2.615   2.438   2.420   2.403   2.332   2.241   2.171   2.230   2.294   2.259   2.349   2.434   2.367   2.274   2.134   2.142   2.345   2.358   2.280   2.312   2.517   2.516   2.622   2.586
   103.85    2.954   2.886   2.983   2.954   2.565   2.556   2.419   2.439   2.493   2.434   2.549   2.449   2.347   2.139   2.121   2.125   2.160   2.122   2.285   2.537   2.563   2.632   2.556   2.348   2.358   2.351   2.375   2.505   2.523   2.576   2.587   2.642   2.473
    99.79    2.862   2.992   2.823   2.756   2.571   2.530   2.212   2.402   2.362   2.360   2.347   2.373   2.211   2.133   2.159   2.181   2.185   2.014   2.332   2.520   2.524   2.624   2.724   2.448   2.452   2.601   2.517   2.560   2.601   2.578   2.458   2.632   2.483
    95.73    2.900   2.742   2.577   2.603   2.625   2.573   2.323   2.430   2.346   2.239   2.179   2.309   2.275   2.246   2.236   2.249   2.240   2.148   2.301   2.484   2.464   2.647   2.789   2.541   2.614   2.650   2.419   2.613   2.594   2.684   2.610   2.605   2.544
    91.66    2.786   2.705   2.705   2.810   2.598   2.483   2.391   2.360   2.378   2.313   2.286   2.263   2.227   2.279   2.253   2.130   2.255   2.252   2.308   2.593   2.497   2.792   2.746   2.594   2.702   2.599   2.492   2.597   2.690   2.659   2.588   2.573   2.649
    87.60    2.639   2.653   2.725   2.736   2.651   2.491   2.439   2.345   2.297   2.227   2.289   2.278   2.207   2.348   2.144   2.127   2.309   2.369   2.308   2.349   2.479   2.559   2.601   2.868   2.767   2.753   2.616   2.610   2.721   2.655   2.532   2.661   2.507
    83.54    2.556   2.474   2.603   2.647   2.565   2.432   2.378   2.196   2.233   2.366   2.360   2.191   2.146   2.143   2.173   2.216   2.200   2.283   2.155   2.255   2.454   2.522   2.620   2.659   2.736   2.705   2.656   2.550   2.596   2.659   2.672   2.737   2.604
    79.48    2.339   2.506   2.552   2.480   2.483   2.524   2.354   2.216   2.228   2.214   2.248   2.274   2.127   2.149   2.223   2.242   2.222   2.348   2.228   2.278   2.281   2.494   2.595   2.615   2.578   2.689   2.862   2.560   2.588   2.566   2.651   2.465   2.657
    75.41    2.370   2.512   2.604   2.530   2.486   2.513   2.549   2.240   2.070   2.017   2.256   2.402   2.339   2.256   2.278   2.198   2.284   2.286   2.215   2.210   2.304   2.387   2.523   2.431   2.540   2.593   2.707   2.609   2.354   2.622   2.684   2.595   2.524
    71.35    2.460   2.651   2.582   2.548   2.573   2.514   2.415   2.355   2.247   2.202   2.186   2.129   2.246   2.356   2.233   2.099   2.231   2.445   2.446   2.346   2.251   2.409   2.469   2.449   2.401   2.604   2.590   2.304   2.460   2.503   2.478   2.539   2.349
    67.29    2.459   2.549   2.580   2.622   2.654   2.590   2.340   2.232   2.278   2.164   2.119   1.926   2.068   2.083   2.108   2.214   2.284   2.410   2.330   2.341   2.361   2.473   2.447   2.473   2.425   2.370   2.405   2.323   2.415   2.407   2.433   2.385   2.360
    63.23    2.552   2.530   2.416   2.519   2.507   2.406   2.421   2.251   2.280   2.153   2.058   2.159   2.259   2.256   2.288   2.315   2.461   2.468   2.393   2.346   2.394   2.522   2.524   2.391   2.516   2.392   2.388   2.485   2.520   2.469   2.310   2.392   2.402
    59.16    2.456   2.417   2.472   2.504   2.563   2.419   2.271   2.254   2.305   2.195   2.080   2.173   2.266   2.323   2.317   2.395   2.515   2.479   2.472   2.420   2.529   2.570   2.567   2.503   2.374   2.477   2.401   2.527   2.580   2.538   2.296   2.338   2.465
    55.10    2.575   2.411   2.481   2.530   2.581   2.480   2.267   2.398   2.357   2.253   2.138   2.044   2.085   2.206   2.306   2.353   2.557   2.539   2.555   2.448   2.625   2.626   2.594   2.562   2.401   2.519   2.453   2.470   2.598   2.475   2.376   2.411   2.346
    51.04    2.531   2.434   2.570   2.553   2.400   2.464   2.429   2.258   2.336   2.295   2.270   2.066   2.132   2.232   2.335   2.325   2.467   2.347   2.462   2.434   2.549   2.657   2.747   2.684   2.617   2.549   2.628   2.477   2.453   2.450   2.482   2.343   2.331
    46.98    2.594   2.377   2.437   2.514   2.360   2.440   2.239   2.309   2.419   2.339   2.412   2.239   2.219   2.240   2.348   2.299   2.394   2.325   2.316   2.381   2.635   2.646   2.804   2.717   2.554   2.525   2.630   2.593   2.435   2.399   2.439   2.381   2.476
    42.91    2.459   2.433   2.406   2.417   2.386   2.485   2.355   2.438   2.524   2.582   2.480   2.438   2.371   2.414   2.411   2.446   2.495   2.415   2.494   2.721   2.725   2.902   2.679   2.802   2.691   2.533   2.557   2.411   2.406   2.521   2.449   2.367   2.507
    38.85    2.482   2.489   2.458   2.443   2.449   2.462   2.426   2.430   2.606   2.545   2.454   2.293   2.428   2.431   2.438   2.406   2.410   2.328   2.543   2.754   2.681   2.914   2.714   2.590   2.674   2.475   2.448   2.450   2.465   2.398   2.379   2.455   2.475
    34.79    2.489   2.427   2.412   2.396   2.371   2.404   2.356   2.481   2.557   2.528   2.445   2.546   2.463   2.440   2.378   2.459   2.574   2.447   2.395   2.637   2.652   2.945   2.870   2.571   2.503   2.574   2.421   2.464   2.399   2.395   2.453   2.493   2.604
    30.73    2.430   2.447   2.467   2.394   2.399   2.485   2.376   2.398   2.523   2.507   2.546   2.559   2.484   2.422   2.387   2.606   2.667   2.727   2.631   2.521   2.508   2.713   2.756   2.676   2.619   2.567   2.532   2.487   2.493   2.464   2.341   2.513   2.625
    26.66    2.542   2.420   2.324   2.433   2.507   2.453   2.353   2.499   2.414   2.496   2.535   2.529   2.568   2.509   2.671   2.686   2.740   2.696   2.779   2.566   2.426   2.505   2.678   2.611   2.551   2.743   2.682   2.597   2.582   2.395   2.512   2.500   2.528
    22.60    2.628   2.423   2.531   2.469   2.533   2.524   2.525   2.539   2.662   2.531   2.553   2.606   2.570   2.639   2.649   2.604   2.573   2.619   2.608   2.633   2.506   2.442   2.482   2.640   2.722   2.716   2.709   2.628   2.612   2.560   2.591   2.585   2.636

   Height   Standard deviation at grid points for the v component:
   152.60    1.958   2.014   2.091   2.079   1.991   2.057   2.031   2.162   2.128   2.173   2.211   2.145   2.015   2.034   1.982   2.013   2.034   2.078   2.031   1.978   2.056   1.905   1.889   1.739   1.680   1.730   1.744   1.825   1.923   2.046   1.942   1.845   1.893
   148.54    2.029   2.044   2.034   2.092   2.041   2.012   2.102   2.120   2.192   2.216   2.273   2.140   2.027   2.027   2.044   2.146   2.005   2.038   2.012   1.992   2.056   1.993   1.906   1.819   1.759   1.744   1.715   1.829   1.979   1.993   1.901   1.851   1.898
   144.48    2.024   1.998   2.028   2.071   1.994   2.063   2.145   2.092   2.150   2.197   2.144   2.069   2.015   2.105   2.079   2.137   2.072   2.065   1.960   1.970   1.979   2.020   1.954   1.828   1.777   1.821   1.805   1.853   1.952   1.915   1.903   1.886   1.877
   140.41    2.062   2.097   2.071   2.043   2.116   2.128   2.125   2.086   2.076   2.176   2.153   2.189   2.136   2.158   2.114   2.152   2.024   2.038   1.977   2.051   1.983   2.021   1.960   1.870   1.843   1.866   1.938   1.838   1.876   1.937   1.791   1.741   1.847
   136.35    2.214   2.203   2.107   2.029   2.065   2.147   2.176   2.088   2.089   2.046   2.147   2.236   2.179   2.098   1.960   1.998   1.990   2.050   2.037   2.020   2.033   2.028   1.953   2.029   1.999   1.982   1.960   1.891   1.913   1.862   1.835   1.856   1.956
   132.29    2.188   2.112   2.141   2.081   2.021   2.030   2.125   2.132   2.109   2.033   2.158   2.224   2.181   2.094   2.013   2.071   2.148   2.099   2.033   2.033   2.077   1.986   1.881   1.938   1.934   1.958   1.945   1.855   1.892   1.843   1.749   1.836   1.798
   128.23    2.177   2.111   2.146   2.075   2.007   2.086   2.158   2.207   2.129   2.136   2.148   2.140   2.180   2.133   2.118   2.145   2.173   2.080   1.993   2.114   2.028   1.925   1.980   1.898   1.930   1.872   1.858   1.739   1.796   1.769   1.834   1.846   1.778
   124.16    2.116   2.030   2.024   1.941   1.935   1.962   2.052   2.061   2.064   2.105   2.121   2.129   2.117   2.202   2.169   2.180   2.189   2.069   2.133   2.042   1.958   1.951   1.991   1.874   1.868   1.904   1.885   1.777   1.801   1.771   1.737   1.753   1.783
   120.10    2.141   2.033   1.979   2.055   1.995   1.985   2.072   2.014   1.994   2.130   2.170   2.125   2.173   2.209   2.158   2.236   2.111   2.035   2.003   1.978   2.007   1.980   1.933   1.812   1.833   1.844   1.861   1.895   1.814   1.833   1.756   1.733   1.712
   116.04    2.078   1.987   2.051   2.042   2.050   2.047   2.049   2.027   2.068   2.152   2.134   2.126   2.113   2.201   2.091   2.147   2.096   2.043   1.959   1.913   1.905   1.937   1.874   1.837   1.845   1.821   1.855   1.886   1.769   1.837   1.814   1.818   1.898
   111.98    2.008   2.095   2.038   2.032   2.073   2.125   2.077   2.113   2.165   2.095   2.145   2.150   2.127   2.153   2.117   2.019   1.985   1.968   2.035   1.958   2.011   1.984   1.956   1.854   1.903   1.831   1.894   1.853   1.821   1.827   1.822   1.933   1.950
   107.91    2.046   1.998   2.037   2.139   2.049   2.082   2.111   2.148   2.136   2.132   2.102   2.143   2.176   2.110   2.046   1.989   1.935   1.991   1.939   1.962   2.053   1.998   1.932   1.920   1.840   1.755   1.689   1.779   1.897   1.843   1.835   1.967   1.918
   103.85    1.978   1.997   2.085   2.048   1.951   2.073   2.140   2.052   2.108   2.071   2.088   2.075   2.066   2.040   2.017   1.999   1.968   2.066   1.973   1.931   1.849   1.930   1.890   1.874   1.843   1.821   1.817   1.825   1.903   1.812   1.826   1.926   1.936
    99.79    2.038   2.008   2.057   2.038   2.072   2.132   2.083   2.082   2.112   2.002   2.133   1.993   2.098   2.155   2.061   1.953   1.962   1.985   2.016   1.910   1.868   1.890   1.862   1.828   1.838   1.894   1.912   1.918   1.859   1.844   1.906   1.877   1.869
    95.73    2.005   2.061   2.196   2.117   2.189   2.168   2.157   2.160   2.121   2.086   2.041   2.037   2.072   2.006   2.088   2.003   1.972   1.952   1.875   1.863   1.773   1.838   1.877   1.828   1.889   1.913   1.989   2.023   1.877   1.901   1.846   1.805   1.802
    91.66    2.097   2.075   2.111   2.159   2.155   2.088   2.109   2.091   2.068   2.051   2.052   2.099   2.091   2.034   1.996   2.005   1.965   1.906   1.873   1.862   1.824   1.822   1.843   1.862   1.953   1.994   1.988   2.049   1.914   1.899   1.867   1.764   1.727
    87.60    2.052   2.044   2.076   2.169   2.084   2.089   2.102   2.095   2.007   2.089   2.089   2.180   2.218   2.022   1.932   1.899   1.872   1.872   1.822   1.902   1.829   1.767   1.887   1.923   1.859   1.913   1.937   1.931   1.920   1.840   1.860   1.859   1.744
    83.54    1.979   1.931   2.016   2.099   2.031   2.027   2.047   2.107   2.019   2.041   2.165   2.138   2.120   2.039   1.976   1.887   1.864   1.770   1.821   1.907   1.847   1.869   1.827   1.969   1.954   2.014   2.003   2.031   2.025   1.897   1.894   1.971   1.762
    79.48    1.959   1.978   1.967   2.000   2.051   2.011   2.123   2.131   2.087   1.999   2.036   2.108   2.070   2.031   1.917   1.890   1.801   1.860   1.899   1.885   1.985   1.954   2.006   2.004   1.942   2.000   2.025   1.968   1.969   1.900   1.917   1.884   1.837
    75.41    1.945   1.879   1.970   2.043   2.120   2.101   2.168   2.235   2.160   2.076   2.015   2.082   2.051   2.034   2.040   1.852   1.687   1.791   1.880   1.946   1.947   1.885   1.988   1.994   2.029   1.999   2.014   2.020   1.876   1.898   1.921   1.902   1.832
    71.35    1.952   2.035   1.997   2.080   2.063   2.102   2.145   2.222   2.208   2.072   2.079   2.059   2.065   2.021   2.008   1.918   1.799   1.829   1.884   1.944   1.928   1.987   2.025   2.011   2.039   2.062   1.997   1.929   1.871   1.929   1.928   1.941   1.817
    67.29    1.982   1.992   2.007   1.999   2.008   2.042   2.023   2.073   2.025   1.989   2.150   2.055   2.012   2.029   1.957   1.897   1.922   1.841   1.891   1.893   1.952   1.965   1.885   1.976   2.014   1.999   2.047   2.033   1.984   1.852   1.937   1.937   1.801
    63.23    1.997   2.086   2.002   2.008   2.025   2.076   2.021   1.929   1.915   2.002   2.043   2.013   2.043   1.996   1.953   1.854   1.910   1.846   1.873   1.846   1.909   1.929   1.844   1.957   1.952   1.928   1.891   1.960   1.906   1.904   1.929   1.940   1.824
    59.16    2.057   2.036   2.007   1.960   2.040   2.112   2.058   1.929   1.939   2.001   1.992   2.022   1.977   1.925   1.914   1.895   1.842   1.912   1.904   1.911   1.914   1.941   1.931   1.873   1.889   1.948   1.876   1.906   1.790   1.838   1.886   1.915   1.926
    55.10    2.032   2.098   2.033   2.021   2.113   2.034   2.032   1.944   1.966   2.041   2.017   2.029   2.014   1.956   1.953   2.004   1.960   2.027   1.979   1.973   1.909   1.948   1.893   1.849   1.837   1.899   1.890   1.885   1.868   1.925   1.977   1.938   1.919
    51.04    2.034   2.065   2.168   2.106   2.131   2.077   2.041   1.996   2.020   2.013   2.054   2.029   1.971   1.985   1.963   2.011   2.043   2.055   1.975   1.928   1.946   1.924   1.878   1.879   1.889   1.906   1.873   1.978   1.952   1.975   1.967   1.920   1.952
    46.98    2.049   2.077   2.120   2.068   2.076   2.105   2.014   1.915   1.956   1.998   1.959   2.001   2.038   2.015   1.983   1.945   2.027   2.084   2.029   1.922   1.985   1.951   1.949   1.886   1.896   1.961   1.968   2.023   2.057   2.004   1.933   1.908   1.910
    42.91    2.055   2.035   2.044   2.087   2.111   2.162   2.069   2.091   2.008   2.025   2.000   2.041   2.091   2.102   2.036   2.074   2.021   1.991   1.939   1.957   1.935   2.003   1.967   1.933   1.861   1.924   1.992   1.941   1.970   1.987   1.921   1.908   1.858
    38.85    1.999   2.043   2.019   2.005   2.048   2.140   2.102   2.091   2.012   1.964   1.946   1.935   2.010   2.071   2.041   2.024   2.048   1.970   1.928   1.956   2.001   1.993   1.967   1.924   1.860   1.892   1.908   1.969   1.956   1.901   1.890   1.917   1.880
    34.79    1.978   2.032   1.981   2.062   2.073   2.090   2.050   2.090   2.034   2.009   1.934   1.924   1.935   2.036   2.058   2.056   2.039   2.013   1.982   1.992   1.944   1.897   1.938   1.992   1.919   1.902   1.922   1.948   1.936   1.929   1.941   1.951   1.909
    30.73    1.973   2.012   2.075   2.085   2.010   2.044   2.030   2.079   2.028   2.005   1.924   1.937   1.968   2.027   2.035   2.059   1.997   1.983   1.972   1.976   1.934   1.920   1.961   1.977   1.934   1.989   2.010   1.981   1.999   1.846   1.917   1.838   1.927
    26.66    2.013   2.043   2.051   2.068   1.993   2.005   2.012   1.973   1.994   1.895   1.954   1.955   1.920   2.022   1.936   1.935   1.877   1.979   1.915   1.909   2.017   1.999   1.992   2.004   2.002   2.024   1.955   1.993   1.968   1.904   1.905   1.934   1.921
    22.60    1.991   1.989   2.032   2.049   1.945   1.939   1.990   2.001   2.041   1.963   1.908   1.942   1.939   1.944   1.931   1.950   1.919   1.946   2.019   1.994   1.970   1.942   1.931   1.979   1.944   1.963   1.930   2.012   1.995   1.893   1.927   1.939   2.043

   Height   Standard deviation at grid points for the w component:
   152.60    1.618   1.656   1.693   1.664   1.593   1.692   1.716   1.710   1.723   1.605   1.518   1.541   1.468   1.504   1.564   1.536   1.474   1.534   1.652   1.646   1.630   1.520   1.567   1.586   1.589   1.565   1.573   1.667   1.665   1.690   1.700   1.646   1.667
   148.54    1.592   1.682   1.665   1.642   1.671   1.663   1.643   1.653   1.655   1.615   1.492   1.475   1.518   1.527   1.537   1.591   1.558   1.566   1.623   1.642   1.638   1.598   1.571   1.548   1.605   1.566   1.550   1.676   1.673   1.698   1.643   1.634   1.600
   144.48    1.575   1.570   1.584   1.654   1.704   1.677   1.670   1.639   1.623   1.610   1.525   1.456   1.511   1.509   1.529   1.600   1.567   1.596   1.650   1.629   1.558   1.566   1.523   1.567   1.599   1.629   1.592   1.605   1.661   1.603   1.650   1.624   1.597
   140.41    1.544   1.600   1.629   1.638   1.724   1.693   1.722   1.629   1.585   1.560   1.530   1.547   1.588   1.559   1.554   1.514   1.586   1.667   1.670   1.699   1.580   1.478   1.528   1.594   1.641   1.612   1.623   1.646   1.681   1.646   1.564   1.554   1.659
   136.35    1.511   1.613   1.611   1.647   1.721   1.739   1.721   1.682   1.595   1.563   1.551   1.582   1.610   1.596   1.570   1.562   1.631   1.654   1.654   1.647   1.629   1.588   1.549   1.578   1.589   1.568   1.576   1.656   1.710   1.612   1.608   1.637   1.623
   132.29    1.542   1.589   1.597   1.660   1.707   1.764   1.698   1.726   1.612   1.551   1.580   1.542   1.601   1.520   1.571   1.616   1.656   1.619   1.625   1.603   1.608   1.557   1.590   1.610   1.556   1.518   1.573   1.702   1.638   1.642   1.577   1.630   1.621
   128.23    1.543   1.518   1.558   1.642   1.610   1.672   1.716   1.684   1.612   1.569   1.532   1.597   1.602   1.599   1.621   1.578   1.551   1.565   1.568   1.597   1.584   1.620   1.621   1.569   1.544   1.533   1.564   1.624   1.655   1.609   1.580   1.604   1.638
   124.16    1.573   1.496   1.603   1.658   1.691   1.649   1.645   1.609   1.581   1.570   1.627   1.654   1.689   1.627   1.602   1.571   1.574   1.582   1.553   1.583   1.589   1.541   1.592   1.552   1.581   1.543   1.568   1.602   1.638   1.619   1.637   1.700   1.652
   120.10    1.549   1.516   1.621   1.706   1.697   1.607   1.618   1.607   1.624   1.590   1.612   1.603   1.582   1.601   1.564   1.518   1.572   1.542   1.482   1.520   1.588   1.627   1.574   1.564   1.608   1.597   1.589   1.607   1.611   1.615   1.626   1.702   1.669
   116.04    1.594   1.535   1.554   1.654   1.730   1.657   1.639   1.585   1.592   1.624   1.614   1.611   1.595   1.553   1.562   1.611   1.580   1.559   1.552   1.559   1.561   1.536   1.508   1.531   1.581   1.628   1.645   1.610   1.609   1.728   1.646   1.627   1.632
   111.98    1.621   1.587   1.640   1.618   1.656   1.675   1.617   1.652   1.563   1.621   1.593   1.560   1.594   1.524   1.568   1.617   1.573   1.560   1.565   1.588   1.555   1.568   1.521   1.517   1.578   1.640   1.683   1.699   1.636   1.670   1.655   1.630   1.664
   107.91    1.633   1.697   1.637   1.604   1.621   1.601   1.622   1.601   1.598   1.598   1.640   1.658   1.586   1.543   1.549   1.650   1.661   1.622   1.645   1.646   1.640   1.593   1.558   1.542   1.611   1.681   1.637   1.649   1.658   1.723   1.680   1.673   1.668
   103.85    1.768   1.713   1.693   1.677   1.641   1.594   1.626   1.628   1.615   1.683   1.641   1.637   1.588   1.580   1.614   1.644   1.614   1.662   1.641   1.669   1.647   1.646   1.567   1.593   1.596   1.688   1.645   1.718   1.746   1.727   1.741   1.770   1.720
    99.79    1.711   1.717   1.648   1.660   1.613   1.681   1.588   1.642   1.635   1.690   1.660   1.703   1.661   1.656   1.665   1.673   1.617   1.626   1.688   1.658   1.624   1.612   1.657   1.639   1.664   1.673   1.661   1.645   1.727   1.716   1.744   1.792   1.775
    95.73    1.700   1.605   1.625   1.629   1.707   1.696   1.654   1.625   1.670   1.648   1.633   1.676   1.652   1.641   1.637   1.640   1.689   1.657   1.650   1.637   1.642   1.585   1.655   1.690   1.699   1.694   1.644   1.683   1.738   1.741   1.721   1.755   1.812
    91.66    1.681   1.662   1.624   1.663   1.657   1.650   1.629   1.641   1.700   1.685   1.592   1.579   1.613   1.597   1.631   1.643   1.663   1.624   1.636   1.653   1.576   1.667   1.651   1.692   1.686   1.655   1.663   1.760   1.712   1.740   1.720   1.678   1.782
    87.60    1.640   1.599   1.607   1.630   1.578   1.582   1.646   1.697   1.650   1.618   1.576   1.527   1.578   1.580   1.559   1.535   1.560   1.598   1.539   1.554   1.602   1.618   1.601   1.650   1.650   1.608   1.610   1.663   1.725   1.727   1.705   1.745   1.725
    83.54    1.576   1.586   1.657   1.608   1.561   1.544   1.626   1.682   1.645   1.586   1.551   1.555   1.515   1.527   1.546   1.589   1.572   1.649   1.574   1.583   1.541   1.582   1.658   1.677   1.675   1.590   1.678   1.702   1.674   1.664   1.700   1.747   1.757
    79.48    1.567   1.615   1.593   1.581   1.572   1.582   1.670   1.605   1.665   1.618   1.597   1.609   1.560   1.562   1.514   1.574   1.606   1.616   1.566   1.521   1.549   1.606   1.639   1.650   1.650   1.632   1.700   1.673   1.661   1.684   1.736   1.693   1.732
    75.41    1.644   1.655   1.639   1.644   1.561   1.525   1.590   1.586   1.631   1.589   1.648   1.647   1.585   1.577   1.585   1.530   1.560   1.550   1.573   1.557   1.587   1.666   1.650   1.648   1.608   1.674   1.684   1.699   1.600   1.671   1.715   1.779   1.678
    71.35    1.721   1.724   1.675   1.615   1.618   1.544   1.529   1.641   1.594   1.635   1.647   1.613   1.603   1.674   1.620   1.504   1.515   1.562   1.594   1.549   1.548   1.645   1.643   1.658   1.618   1.708   1.721   1.712   1.680   1.691   1.696   1.719   1.636
    67.29    1.720   1.667   1.686   1.655   1.574   1.603   1.563   1.562   1.593   1.596   1.637   1.569   1.517   1.575   1.568   1.579   1.580   1.633   1.555   1.580   1.580   1.675   1.649   1.615   1.591   1.609   1.683   1.719   1.694   1.624   1.700   1.683   1.670
    63.23    1.648   1.725   1.724   1.645   1.617   1.532   1.616   1.612   1.516   1.608   1.637   1.619   1.569   1.578   1.568   1.635   1.630   1.700   1.639   1.527   1.585   1.653   1.699   1.647   1.675   1.645   1.688   1.715   1.693   1.627   1.677   1.689   1.638
    59.16    1.691   1.737   1.677   1.658   1.619   1.558   1.581   1.653   1.584   1.577   1.588   1.628   1.630   1.595   1.621   1.608   1.650   1.663   1.668   1.626   1.611   1.645   1.660   1.649   1.691   1.658   1.664   1.719   1.757   1.724   1.701   1.698   1.648
    55.10    1.703   1.744   1.739   1.666   1.653   1.635   1.693   1.656   1.607   1.549   1.589   1.618   1.630   1.606   1.586   1.625   1.575   1.669   1.665   1.674   1.632   1.630   1.646   1.645   1.640   1.678   1.662   1.698   1.691   1.714   1.636   1.664   1.630
    51.04    1.744   1.692   1.724   1.683   1.677   1.611   1.618   1.567   1.552   1.534   1.568   1.565   1.650   1.658   1.631   1.527   1.572   1.616   1.646   1.585   1.556   1.589   1.690   1.715   1.686   1.628   1.683   1.712   1.646   1.729   1.725   1.692   1.583
    46.98    1.690   1.674   1.647   1.628   1.606   1.649   1.616   1.584   1.614   1.584   1.589   1.602   1.596   1.604   1.586   1.580   1.552   1.546   1.557   1.607   1.630   1.612   1.687   1.732   1.665   1.622   1.670   1.726   1.676   1.686   1.707   1.639   1.653
    42.91    1.689   1.607   1.698   1.604   1.659   1.698   1.658   1.633   1.620   1.667   1.622   1.639   1.633   1.610   1.596   1.568   1.545   1.593   1.597   1.619   1.596   1.669   1.648   1.747   1.719   1.703   1.701   1.736   1.699   1.687   1.685   1.660   1.653
    38.85    1.665   1.656   1.621   1.589   1.601   1.647   1.651   1.621   1.627   1.633   1.629   1.625   1.575   1.544   1.523   1.542   1.538   1.598   1.597   1.565   1.542   1.664   1.693   1.702   1.718   1.696   1.717   1.758   1.690   1.730   1.638   1.617   1.633
    34.79    1.615   1.609   1.634   1.598   1.597   1.626   1.599   1.663   1.675   1.618   1.621   1.683   1.588   1.564   1.547   1.575   1.605   1.571   1.599   1.591   1.572   1.572   1.673   1.684   1.694   1.723   1.722   1.706   1.662   1.659   1.628   1.657   1.663
    30.73    1.651   1.653   1.694   1.638   1.635   1.604   1.652   1.652   1.609   1.611   1.627   1.621   1.557   1.564   1.576   1.569   1.580   1.605   1.599   1.562   1.621   1.613   1.677   1.680   1.722   1.685   1.686   1.680   1.642   1.635   1.669   1.650   1.673
    26.66    1.610   1.663   1.700   1.655   1.677   1.650   1.675   1.683   1.609   1.566   1.619   1.605   1.607   1.563   1.602   1.598   1.604   1.641   1.582   1.612   1.612   1.652   1.651   1.660   1.633   1.713   1.722   1.686   1.650   1.635   1.681   1.676   1.715
    22.60    1.665   1.647   1.677   1.692   1.718   1.693   1.669   1.638   1.638   1.599   1.650   1.600   1.637   1.622   1.595   1.599   1.607   1.652   1.619   1.603   1.602   1.598   1.627   1.633   1.645   1.643   1.670   1.665   1.653   1.692   1.636   1.609   1.672

   Mean standard deviation across all grid points:
      u component:    2.454 m/s
      v component:    1.986 m/s
      w component:    1.628 m/s


U-component (X) statistics from the hub grid point:

   Mean =  24.0000 m/s
   TI   =   9.6212 %

Nyquist frequency of turbulent wind field =        10.000 Hz


Processing complete.  294.3 CPU seconds used.
