
This summary file was generated by TurbSim (v1.06.00, 21-Sep-2012) on 15-Sep-2020 at 15:18:49.


Runtime Options:

  65432154  Random seed #1
    RANLUX  Type of random number generator
         F  Output binary HH turbulence parameters?
         F  Output formatted turbulence parameters?
         F  Output AeroDyn HH files?
         T  Output AeroDyn FF files?
         F  Output BLADED FF files?
         T  Output tower data?
         F  Output formatted FF files?
         F  Output coherent turbulence time step file?
         T  Clockwise rotation when looking downwind?
 0 -  NONE  IEC turbulence models scaled to exact specified standard deviation


Turbine/Model Specifications:

        33  Vertical grid-point matrix dimension
        33  Horizontal grid-point matrix dimension
     0.050  Time step [seconds]
   370.000  Analysis time [seconds]
   370.000  Usable output time [seconds]
    87.600  Hub height [m]
   130.000  Grid height [m]
   130.000  Grid width [m]
     0.000  Vertical flow angle [degrees]
     0.000  Horizontal flow angle [degrees]


Meteorological Boundary Conditions:

    SMOOTH  RISO Smooth Terrain spectral model
       N/A  IEC standard
       N/A  IEC turbulence characteristic
       N/A  IEC turbulence type
       N/A  IEC Extreme Turbulence Model (ETM) "c" parameter [m/s]
       IEC  Wind profile type
    87.600  Reference height [m]
    20.000  Reference wind speed [m/s]
       N/A  Jet height [m]
     0.143  Power law exponent
     0.010  Surface roughness length [m]


Non-IEC Meteorological Boundary Conditions:

    45.000  Site latitude [degrees]
     0.050  Gradient Richardson number
     0.850  Friction or shear velocity [m/s]
       N/A  Mixing layer depth [m]
    -0.723  Mean hub u'w' Reynolds stress
       N/A  Mean hub u'v' Reynolds stress
       N/A  Mean hub v'w' Reynolds stress
(   20.000,  0.00    )  u-component coherence parameters
(   15.000,  0.00    )  v-component coherence parameters
(   15.000,  0.00    )  w-component coherence parameters
     0.000  Coherence exponent


You have requested that the following file(s) be generated:

   unsteady_tmp_20.bts (AeroDyn/TurbSim full-field wind file)


Turbulence Simulation Scaling Parameter Summary:

   Turbulence model used                            =  RISO Smooth Terrain
   Gradient Richardson number                       =    0.050
   Monin-Obukhov (M-O) z/L parameter                =    0.067
   Monin-Obukhov (M-O) length scale                 = 1314.000 m
   Mean wind speed at hub height                    =   20.000 m/s

   Wind profile type                                =  Power law on rotor disk, logarithmic elsewhere
   Power law exponent                               =    0.143
   Mean shear across rotor disk                     =    0.037 (m/s)/m
   Assumed rotor diameter                           =  130.000 m
   Surface roughness length                         =    0.010 m

   Number of time steps in the FFT                  =     7560
   Number of time steps output                      =     7530


Mean Flow Angles:

   Vertical   =   0.0 degrees
   Horizontal =   0.0 degrees

Mean Wind Speed Profile:

   Height    Wind Speed   Horizontal Angle  U-comp (X)   V-comp (Y)   W-comp (Z)
     (m)        (m/s)         (degrees)       (m/s)        (m/s)        (m/s)   
   ------    ----------   ----------------  ----------   ----------   ----------
    152.6       21.22            0.00         21.22         0.00         0.00
    148.5       21.57            0.00         21.57         0.00         0.00
    144.5       21.48            0.00         21.48         0.00         0.00
    140.4       21.40            0.00         21.40         0.00         0.00
    136.4       21.31            0.00         21.31         0.00         0.00
    132.3       21.21            0.00         21.21         0.00         0.00
    128.2       21.12            0.00         21.12         0.00         0.00
    124.2       21.02            0.00         21.02         0.00         0.00
    120.1       20.92            0.00         20.92         0.00         0.00
    116.0       20.82            0.00         20.82         0.00         0.00
    112.0       20.71            0.00         20.71         0.00         0.00
    107.9       20.61            0.00         20.61         0.00         0.00
    103.9       20.49            0.00         20.49         0.00         0.00
     99.8       20.38            0.00         20.38         0.00         0.00
     95.7       20.26            0.00         20.26         0.00         0.00
     91.7       20.13            0.00         20.13         0.00         0.00
     87.6       20.00            0.00         20.00         0.00         0.00
     83.5       19.86            0.00         19.86         0.00         0.00
     79.5       19.72            0.00         19.72         0.00         0.00
     75.4       19.58            0.00         19.58         0.00         0.00
     71.4       19.42            0.00         19.42         0.00         0.00
     67.3       19.26            0.00         19.26         0.00         0.00
     63.2       19.09            0.00         19.09         0.00         0.00
     59.2       18.91            0.00         18.91         0.00         0.00
     55.1       18.72            0.00         18.72         0.00         0.00
     51.0       18.51            0.00         18.51         0.00         0.00
     47.0       18.29            0.00         18.29         0.00         0.00
     42.9       18.06            0.00         18.06         0.00         0.00
     38.9       17.80            0.00         17.80         0.00         0.00
     34.8       17.53            0.00         17.53         0.00         0.00
     30.7       17.22            0.00         17.22         0.00         0.00
     26.7       16.87            0.00         16.87         0.00         0.00
     22.6       16.48            0.00         16.48         0.00         0.00
     18.5       16.58            0.00         16.58         0.00         0.00
     14.5       16.03            0.00         16.03         0.00         0.00
     10.4       15.31            0.00         15.31         0.00         0.00
      6.4       14.22            0.00         14.22         0.00         0.00
      2.3       11.97            0.00         11.97         0.00         0.00


Harvested Random Seeds after Generation of the Random Numbers:

    115272045 K1
            0 K2


Scaling statistics from the hub grid point:

   Cross-Component  Scaling Factor
   ---------------  --------------
   u'w'               -0.99422E-01
   u'v'                0.00000E+00
   v'w'                0.00000E+00


Hub-Height Simulated Turbulence Statistical Summary:

   Type of Wind        Min (m/s)   Mean (m/s)    Max (m/s)  Sigma (m/s)       TI (%)
   ----------------    ---------   ----------    ---------  -----------       ------
   Longitudinal (u)        12.32        20.00        26.54        2.108       10.541
   Lateral (v)             -6.46         0.00         5.04        1.633        8.164
   Vertical (w)            -6.58         0.00         4.15        1.344        6.721
   U component             12.32        20.00        26.54        2.108       10.541
   V component             -6.46         0.00         5.04        1.633        8.164
   W component             -6.58         0.00         4.15        1.344        6.721
   Horizontal (U&V)        12.61        20.07        26.57        2.105       10.492
   Total                   12.77        20.11        26.63        2.103       10.455

                       Min Reynolds     Mean Reynolds    Max Reynolds    Correlation
   Product             Stress (m/s)^2   Stress (m/s)^2   Stress (m/s)^2  Coefficient
   ----------------    --------------   --------------   --------------  -----------
   u'w'                    -21.696            -0.723            13.439        -0.255
   u'v'                    -23.410            -0.354            16.960        -0.103
   v'w'                    -13.882             0.141            21.205         0.064


   Friction Velocity (Ustar)  =      0.850 m/s
   Maximum Instantaneous TKE  =     35.055 (m/s)^2
   Maximum Instantaneous CTKE =     13.532 (m/s)^2


Grid Point Variance Summary:

   Y-coord  -65.00  -60.94  -56.88  -52.81  -48.75  -44.69  -40.62  -36.56  -32.50  -28.44  -24.38  -20.31  -16.25  -12.19   -8.12   -4.06    0.00    4.06    8.12   12.19   16.25   20.31   24.38   28.44   32.50   36.56   40.62   44.69   48.75   52.81   56.88   60.94   65.00

   Height   Standard deviation at grid points for the u component:
   152.60    2.851   2.907   2.895   2.898   2.819   2.730   2.599   2.545   2.415   2.397   2.309   2.146   2.192   2.239   2.382   2.352   2.322   2.179   2.108   2.052   2.162   2.040   1.908   1.999   1.969   1.937   1.859   2.088   2.077   1.895   1.888   1.909   1.903
   148.54    2.748   2.817   2.790   2.761   2.571   2.643   2.530   2.504   2.479   2.378   2.241   2.247   2.294   2.259   2.336   2.302   2.360   2.242   2.252   2.265   2.197   2.176   2.120   2.055   1.978   1.927   1.933   1.983   2.051   2.011   1.868   1.879   1.770
   144.48    2.640   2.674   2.694   2.557   2.545   2.553   2.585   2.700   2.593   2.491   2.352   2.203   2.226   2.315   2.141   2.185   2.269   2.278   2.362   2.284   2.219   2.137   2.113   2.067   1.968   2.017   1.926   1.980   1.999   1.900   1.828   1.805   1.853
   140.41    2.674   2.606   2.563   2.487   2.482   2.613   2.495   2.519   2.613   2.489   2.348   2.374   2.211   2.236   2.151   2.151   2.203   2.269   2.214   2.377   2.241   2.113   2.056   2.092   2.065   1.981   1.891   1.954   1.991   1.960   1.850   1.850   1.885
   136.35    2.655   2.640   2.555   2.551   2.485   2.416   2.519   2.592   2.538   2.389   2.330   2.347   2.253   2.072   2.129   2.096   2.186   2.297   2.287   2.357   2.272   2.166   2.239   2.065   2.037   2.047   2.029   2.046   1.888   1.909   1.938   1.883   1.825
   132.29    2.627   2.606   2.409   2.407   2.476   2.463   2.531   2.455   2.511   2.470   2.212   2.244   2.151   1.962   2.065   1.989   2.242   2.272   2.332   2.146   2.168   2.198   2.190   2.008   2.126   1.953   1.920   1.945   1.779   1.872   1.796   1.687   1.788
   128.23    2.602   2.566   2.529   2.478   2.429   2.566   2.474   2.469   2.490   2.408   2.265   2.193   2.165   2.054   1.917   1.991   2.045   2.126   2.179   2.258   2.133   2.249   2.003   2.018   1.883   1.844   1.724   1.835   1.970   2.029   1.955   1.866   1.873
   124.16    2.652   2.656   2.470   2.377   2.453   2.583   2.523   2.467   2.442   2.219   2.087   2.199   2.087   2.042   2.064   1.957   1.876   2.040   2.060   2.096   2.182   2.146   2.056   2.045   1.980   1.928   1.848   1.862   1.992   1.993   1.911   1.881   1.845
   120.10    2.705   2.628   2.454   2.307   2.393   2.473   2.492   2.518   2.413   2.251   2.177   2.204   2.166   2.015   2.076   1.950   1.927   2.042   2.071   2.150   2.118   2.193   2.149   1.992   2.000   1.954   1.875   1.816   1.900   1.863   1.877   1.811   1.799
   116.04    2.742   2.701   2.504   2.413   2.207   2.319   2.496   2.475   2.396   2.320   2.209   2.128   1.981   1.893   2.023   1.822   1.814   1.953   2.000   1.997   2.107   2.193   2.072   2.096   2.163   2.038   1.939   1.983   1.976   1.916   1.861   1.769   1.774
   111.98    2.620   2.641   2.611   2.530   2.230   2.309   2.306   2.328   2.294   2.178   2.094   2.051   1.948   1.996   2.017   1.883   1.849   1.985   1.980   2.094   2.121   1.952   1.956   2.187   2.234   2.122   2.020   2.153   2.078   1.995   2.027   1.873   1.786
   107.91    2.580   2.580   2.621   2.360   2.295   2.307   2.258   2.283   2.250   2.101   2.106   2.084   1.905   1.969   1.997   1.816   1.841   1.937   2.093   2.172   2.159   2.038   2.026   2.191   2.294   2.243   2.166   2.133   2.025   2.074   1.943   1.887   1.738
   103.85    2.530   2.667   2.598   2.421   2.298   2.256   2.215   2.315   2.121   2.148   2.166   2.030   1.863   1.891   1.861   1.960   1.824   1.876   2.010   2.024   2.088   2.090   2.085   2.249   2.338   2.301   2.272   2.338   2.275   2.066   2.007   1.889   1.829
    99.79    2.566   2.559   2.500   2.551   2.446   2.339   2.344   2.287   2.284   2.200   2.111   2.132   2.056   2.035   1.921   1.952   1.936   1.978   2.030   1.966   1.980   2.058   1.957   2.186   2.272   2.151   2.164   2.198   2.009   1.947   1.898   1.933   1.661
    95.73    2.398   2.398   2.356   2.414   2.284   2.406   2.339   2.265   2.180   2.174   2.087   2.180   2.160   1.915   1.860   2.009   2.109   2.119   2.091   1.905   1.915   2.000   2.029   2.095   2.181   2.237   2.155   2.172   2.067   1.953   1.833   1.788   1.709
    91.66    2.204   2.356   2.385   2.387   2.260   2.300   2.337   2.353   2.178   2.112   2.131   2.208   2.206   2.036   2.088   2.089   2.120   2.079   2.047   2.089   2.121   1.959   1.905   2.067   2.116   2.033   2.037   1.920   2.004   1.965   1.800   1.786   1.655
    87.60    2.252   2.313   2.344   2.346   2.298   2.349   2.294   2.342   2.001   2.025   1.915   2.040   2.055   2.036   2.032   2.178   2.108   2.037   2.104   2.009   2.110   2.056   2.070   2.093   2.173   2.019   2.083   1.980   1.927   1.937   1.914   1.853   1.873
    83.54    2.237   2.285   2.275   2.388   2.451   2.461   2.255   2.178   2.134   2.092   1.936   1.873   2.036   2.027   2.049   1.932   2.115   2.033   2.011   1.941   1.998   2.106   2.122   2.121   2.130   2.169   2.064   1.964   1.871   1.919   1.905   1.994   1.881
    79.48    2.341   2.320   2.292   2.330   2.431   2.341   2.183   2.217   2.119   2.097   1.919   2.055   2.065   1.967   1.897   1.901   1.999   1.970   2.013   2.143   2.126   2.139   2.087   2.088   2.223   2.126   2.133   2.019   1.906   1.875   1.890   1.951   1.852
    75.41    2.283   2.341   2.173   2.245   2.325   2.432   2.124   2.111   2.107   2.106   2.006   2.009   2.069   1.898   1.970   1.965   1.966   2.056   2.182   2.066   2.162   2.062   2.123   2.200   2.166   2.022   2.109   1.994   1.884   1.773   1.908   1.847   1.948
    71.35    2.239   2.239   2.258   2.332   2.360   2.410   2.235   2.050   1.932   1.947   2.073   2.090   2.059   2.048   1.965   2.013   2.066   2.133   2.154   2.123   2.141   2.100   2.104   2.108   2.202   2.131   2.070   1.908   1.896   1.812   1.881   1.903   1.908
    67.29    2.437   2.356   2.361   2.224   2.203   2.257   2.178   2.063   1.975   2.015   2.142   2.091   2.104   2.041   1.987   2.018   2.072   2.121   2.043   1.973   2.067   2.152   2.120   2.272   2.123   2.136   1.995   1.911   1.832   1.785   1.919   2.051   2.119
    63.23    2.390   2.488   2.365   2.279   2.251   2.314   2.117   2.015   1.945   2.025   2.149   2.177   2.165   2.135   2.099   2.143   2.092   2.104   2.071   2.050   2.034   2.127   2.178   2.137   2.213   2.140   1.966   1.868   1.784   1.699   1.798   1.941   2.043
    59.16    2.315   2.423   2.249   2.195   2.179   2.197   2.088   1.958   1.929   2.021   2.103   2.173   2.240   2.192   2.138   2.204   2.222   2.189   2.132   2.173   2.150   2.179   2.199   2.122   2.020   2.070   1.977   1.876   1.787   1.830   1.836   1.939   2.014
    55.10    2.236   2.274   2.223   2.105   2.030   2.206   2.010   1.965   1.910   2.025   2.197   2.181   2.141   2.125   2.085   2.134   2.174   2.182   2.171   2.230   2.064   2.027   2.071   2.105   2.061   2.123   2.067   2.036   1.988   1.972   1.934   1.922   2.010
    51.04    2.236   2.215   2.159   2.057   2.021   1.993   1.888   1.926   2.030   2.069   2.097   2.145   2.136   2.039   2.068   2.189   2.171   2.068   2.222   2.151   2.035   1.982   2.096   2.070   2.053   2.085   2.213   2.160   2.212   2.036   1.983   1.930   1.962
    46.98    2.261   2.185   2.081   2.018   1.934   2.013   2.004   2.048   2.028   1.948   1.997   2.116   2.086   2.083   2.002   2.155   2.039   2.067   2.020   2.190   2.053   2.106   2.028   2.051   2.022   2.101   2.194   2.135   2.213   2.053   2.117   1.970   2.090
    42.91    2.159   2.135   1.984   2.015   2.055   2.035   2.155   2.159   1.987   2.085   2.157   2.158   2.081   2.042   2.039   2.055   2.028   1.994   2.031   2.085   2.026   1.967   1.950   2.023   1.955   2.064   2.070   2.136   2.102   2.211   2.096   1.965   1.887
    38.85    2.144   2.090   2.077   2.022   2.156   2.052   1.998   2.151   2.120   2.079   2.073   2.052   1.998   1.969   2.003   2.171   2.031   2.057   2.114   2.174   2.121   2.035   1.931   2.071   2.050   2.054   2.093   2.091   2.058   2.134   2.110   2.009   2.060
    34.79    2.035   2.128   2.097   2.065   2.031   2.055   2.060   2.101   2.114   2.008   2.099   2.081   1.963   2.119   2.115   2.130   2.045   2.073   2.131   2.083   2.081   1.945   1.935   1.988   1.967   1.909   1.902   1.972   2.106   2.000   2.006   1.975   2.015
    30.73    2.202   1.959   2.086   2.018   2.109   2.188   2.082   2.077   2.121   1.962   2.111   2.109   2.112   2.148   2.061   2.070   2.091   2.073   2.123   2.127   2.083   2.012   1.937   1.912   1.937   1.950   1.882   1.970   2.051   1.986   2.101   2.011   2.016
    26.66    2.231   2.120   2.087   2.117   2.104   2.105   2.219   2.270   2.213   2.151   2.201   2.178   2.050   2.084   2.033   2.242   2.209   2.092   1.948   2.062   2.059   2.031   2.044   1.926   1.929   1.948   2.023   2.048   1.965   1.992   2.080   2.064   1.984
    22.60    2.189   2.240   2.237   2.197   2.196   2.243   2.265   2.248   2.164   2.144   2.105   2.079   2.093   2.030   2.092   2.141   2.160   2.155   1.985   1.994   1.947   1.950   2.005   1.873   1.962   2.036   2.026   1.989   1.913   2.047   1.968   2.118   2.102

   Height   Standard deviation at grid points for the v component:
   152.60    1.474   1.419   1.443   1.454   1.501   1.409   1.393   1.533   1.495   1.524   1.394   1.376   1.350   1.426   1.400   1.445   1.521   1.553   1.604   1.576   1.596   1.670   1.647   1.684   1.668   1.610   1.633   1.630   1.675   1.646   1.604   1.638   1.665
   148.54    1.439   1.445   1.441   1.513   1.463   1.442   1.537   1.536   1.479   1.508   1.429   1.346   1.377   1.476   1.435   1.527   1.571   1.604   1.567   1.619   1.589   1.601   1.565   1.626   1.620   1.616   1.654   1.676   1.677   1.710   1.649   1.697   1.746
   144.48    1.416   1.364   1.434   1.502   1.510   1.505   1.470   1.491   1.493   1.507   1.445   1.372   1.420   1.483   1.504   1.545   1.555   1.553   1.575   1.559   1.543   1.582   1.585   1.706   1.650   1.639   1.605   1.701   1.703   1.651   1.684   1.694   1.716
   140.41    1.505   1.441   1.471   1.549   1.608   1.536   1.532   1.585   1.556   1.483   1.494   1.437   1.469   1.524   1.478   1.546   1.523   1.560   1.482   1.522   1.558   1.536   1.578   1.595   1.666   1.640   1.625   1.669   1.660   1.651   1.704   1.690   1.653
   136.35    1.533   1.439   1.528   1.577   1.559   1.590   1.605   1.591   1.524   1.473   1.532   1.470   1.432   1.493   1.520   1.557   1.600   1.572   1.532   1.476   1.435   1.513   1.539   1.556   1.597   1.636   1.622   1.678   1.712   1.658   1.665   1.659   1.741
   132.29    1.529   1.403   1.443   1.484   1.513   1.543   1.583   1.564   1.543   1.466   1.482   1.424   1.415   1.456   1.546   1.598   1.566   1.528   1.528   1.426   1.414   1.481   1.438   1.515   1.593   1.601   1.644   1.618   1.684   1.683   1.711   1.750   1.716
   128.23    1.418   1.423   1.405   1.384   1.508   1.522   1.481   1.479   1.545   1.532   1.411   1.428   1.422   1.497   1.543   1.545   1.464   1.418   1.481   1.512   1.420   1.509   1.492   1.518   1.598   1.566   1.624   1.702   1.677   1.747   1.707   1.747   1.782
   124.16    1.383   1.378   1.293   1.365   1.447   1.445   1.433   1.394   1.500   1.542   1.469   1.414   1.403   1.471   1.530   1.468   1.450   1.455   1.496   1.493   1.504   1.576   1.563   1.533   1.581   1.688   1.688   1.659   1.714   1.715   1.764   1.760   1.858
   120.10    1.395   1.345   1.285   1.387   1.394   1.393   1.361   1.375   1.452   1.492   1.520   1.470   1.384   1.401   1.419   1.486   1.577   1.607   1.595   1.616   1.519   1.504   1.513   1.561   1.559   1.579   1.707   1.709   1.693   1.732   1.690   1.728   1.709
   116.04    1.423   1.361   1.366   1.399   1.373   1.390   1.410   1.470   1.460   1.451   1.432   1.448   1.408   1.390   1.499   1.608   1.701   1.604   1.615   1.579   1.559   1.495   1.577   1.574   1.551   1.622   1.654   1.748   1.745   1.693   1.747   1.767   1.768
   111.98    1.485   1.436   1.388   1.360   1.386   1.420   1.452   1.485   1.495   1.443   1.421   1.435   1.407   1.469   1.553   1.659   1.642   1.628   1.677   1.637   1.662   1.594   1.594   1.677   1.623   1.583   1.641   1.701   1.728   1.771   1.821   1.863   1.843
   107.91    1.495   1.472   1.461   1.442   1.472   1.451   1.495   1.494   1.538   1.542   1.490   1.443   1.559   1.530   1.576   1.672   1.717   1.694   1.732   1.735   1.667   1.712   1.651   1.638   1.720   1.747   1.719   1.836   1.744   1.758   1.820   1.837   1.860
   103.85    1.558   1.535   1.451   1.429   1.493   1.551   1.467   1.549   1.566   1.604   1.505   1.495   1.558   1.549   1.544   1.586   1.700   1.686   1.689   1.754   1.654   1.719   1.684   1.666   1.712   1.784   1.754   1.746   1.693   1.805   1.827   1.894   1.827
    99.79    1.612   1.528   1.515   1.513   1.528   1.531   1.520   1.566   1.609   1.585   1.570   1.603   1.634   1.617   1.610   1.629   1.648   1.689   1.748   1.735   1.772   1.749   1.668   1.661   1.644   1.729   1.781   1.759   1.751   1.715   1.765   1.745   1.723
    95.73    1.604   1.556   1.577   1.568   1.586   1.514   1.569   1.563   1.600   1.571   1.597   1.713   1.644   1.649   1.599   1.669   1.664   1.735   1.711   1.739   1.751   1.804   1.739   1.718   1.697   1.764   1.786   1.730   1.672   1.730   1.698   1.606   1.619
    91.66    1.671   1.581   1.607   1.598   1.601   1.530   1.552   1.570   1.565   1.588   1.645   1.742   1.712   1.756   1.690   1.700   1.697   1.662   1.784   1.762   1.773   1.826   1.796   1.849   1.879   1.802   1.753   1.760   1.690   1.594   1.632   1.618   1.607
    87.60    1.689   1.617   1.596   1.643   1.636   1.652   1.658   1.591   1.555   1.631   1.703   1.691   1.764   1.754   1.720   1.726   1.633   1.612   1.666   1.744   1.802   1.797   1.874   1.837   1.791   1.778   1.737   1.687   1.711   1.580   1.583   1.616   1.629
    83.54    1.681   1.630   1.639   1.646   1.611   1.659   1.643   1.617   1.563   1.648   1.702   1.756   1.683   1.644   1.745   1.740   1.741   1.672   1.702   1.790   1.716   1.808   1.824   1.848   1.793   1.720   1.717   1.632   1.653   1.602   1.605   1.581   1.660
    79.48    1.698   1.615   1.654   1.650   1.602   1.704   1.677   1.670   1.662   1.660   1.675   1.647   1.691   1.748   1.732   1.763   1.722   1.760   1.758   1.789   1.752   1.766   1.849   1.859   1.825   1.718   1.704   1.668   1.562   1.528   1.552   1.557   1.674
    75.41    1.704   1.684   1.656   1.728   1.751   1.743   1.637   1.661   1.730   1.604   1.629   1.692   1.737   1.784   1.803   1.763   1.719   1.720   1.729   1.781   1.799   1.814   1.820   1.781   1.767   1.786   1.688   1.621   1.513   1.589   1.596   1.678   1.663
    71.35    1.729   1.655   1.622   1.716   1.775   1.761   1.801   1.738   1.712   1.720   1.621   1.678   1.704   1.729   1.683   1.733   1.753   1.792   1.850   1.810   1.790   1.792   1.699   1.791   1.776   1.749   1.678   1.665   1.596   1.620   1.590   1.661   1.733
    67.29    1.703   1.618   1.620   1.696   1.759   1.761   1.763   1.707   1.677   1.667   1.695   1.692   1.682   1.667   1.669   1.729   1.739   1.768   1.805   1.799   1.800   1.757   1.742   1.700   1.738   1.752   1.735   1.686   1.682   1.622   1.618   1.651   1.767
    63.23    1.660   1.594   1.666   1.737   1.704   1.695   1.732   1.683   1.722   1.669   1.703   1.691   1.630   1.664   1.673   1.741   1.723   1.704   1.722   1.711   1.728   1.815   1.783   1.759   1.777   1.779   1.747   1.738   1.709   1.636   1.628   1.692   1.732
    59.16    1.645   1.646   1.692   1.722   1.670   1.673   1.697   1.669   1.691   1.784   1.774   1.681   1.716   1.639   1.624   1.657   1.670   1.688   1.587   1.639   1.651   1.737   1.696   1.729   1.753   1.722   1.708   1.697   1.688   1.712   1.676   1.610   1.686
    55.10    1.666   1.614   1.660   1.703   1.602   1.616   1.691   1.705   1.715   1.706   1.732   1.746   1.637   1.613   1.611   1.666   1.645   1.621   1.552   1.581   1.608   1.659   1.644   1.684   1.755   1.709   1.725   1.696   1.667   1.662   1.615   1.628   1.727
    51.04    1.608   1.577   1.631   1.644   1.586   1.626   1.621   1.691   1.635   1.625   1.691   1.699   1.668   1.572   1.604   1.679   1.615   1.658   1.620   1.647   1.628   1.673   1.695   1.755   1.698   1.722   1.677   1.694   1.651   1.698   1.644   1.656   1.700
    46.98    1.564   1.613   1.595   1.655   1.603   1.686   1.651   1.631   1.614   1.553   1.669   1.667   1.677   1.616   1.612   1.731   1.682   1.662   1.678   1.679   1.631   1.676   1.728   1.658   1.708   1.642   1.683   1.771   1.773   1.706   1.655   1.617   1.673
    42.91    1.664   1.627   1.644   1.636   1.648   1.622   1.572   1.555   1.596   1.610   1.667   1.563   1.628   1.621   1.606   1.627   1.703   1.606   1.546   1.565   1.616   1.686   1.699   1.695   1.723   1.662   1.671   1.704   1.745   1.740   1.653   1.700   1.679
    38.85    1.626   1.660   1.633   1.632   1.607   1.640   1.602   1.678   1.673   1.716   1.710   1.632   1.637   1.626   1.637   1.666   1.675   1.634   1.597   1.593   1.658   1.680   1.682   1.640   1.733   1.672   1.622   1.697   1.715   1.697   1.698   1.686   1.742
    34.79    1.696   1.695   1.648   1.647   1.644   1.657   1.673   1.678   1.634   1.697   1.705   1.646   1.679   1.657   1.688   1.654   1.635   1.657   1.586   1.608   1.665   1.733   1.669   1.665   1.647   1.660   1.659   1.681   1.704   1.746   1.709   1.645   1.671
    30.73    1.646   1.646   1.680   1.661   1.675   1.698   1.691   1.722   1.698   1.663   1.716   1.699   1.667   1.573   1.599   1.665   1.723   1.721   1.654   1.670   1.675   1.612   1.685   1.698   1.683   1.669   1.698   1.664   1.724   1.739   1.749   1.632   1.705
    26.66    1.660   1.658   1.630   1.702   1.688   1.724   1.727   1.727   1.708   1.697   1.716   1.675   1.676   1.576   1.587   1.601   1.695   1.693   1.707   1.663   1.643   1.670   1.668   1.668   1.677   1.643   1.715   1.725   1.743   1.739   1.676   1.750   1.735
    22.60    1.663   1.686   1.678   1.661   1.670   1.726   1.740   1.744   1.680   1.710   1.717   1.646   1.658   1.604   1.622   1.654   1.654   1.634   1.687   1.668   1.601   1.642   1.656   1.654   1.693   1.679   1.717   1.733   1.755   1.758   1.729   1.703   1.715

   Height   Standard deviation at grid points for the w component:
   152.60    1.271   1.216   1.284   1.288   1.254   1.295   1.302   1.241   1.220   1.241   1.252   1.283   1.226   1.218   1.212   1.244   1.268   1.258   1.271   1.259   1.181   1.137   1.228   1.221   1.276   1.264   1.266   1.247   1.247   1.180   1.215   1.226   1.242
   148.54    1.234   1.237   1.240   1.240   1.262   1.273   1.238   1.229   1.241   1.302   1.310   1.239   1.261   1.229   1.294   1.289   1.307   1.286   1.296   1.241   1.196   1.169   1.237   1.262   1.268   1.243   1.259   1.237   1.283   1.206   1.224   1.207   1.233
   144.48    1.219   1.207   1.211   1.192   1.203   1.235   1.219   1.259   1.276   1.341   1.344   1.278   1.233   1.286   1.284   1.256   1.289   1.308   1.289   1.174   1.160   1.227   1.234   1.295   1.244   1.289   1.280   1.305   1.258   1.254   1.254   1.179   1.238
   140.41    1.256   1.211   1.192   1.247   1.232   1.246   1.271   1.254   1.294   1.346   1.268   1.294   1.315   1.308   1.277   1.316   1.347   1.312   1.297   1.278   1.261   1.293   1.361   1.355   1.326   1.272   1.317   1.312   1.264   1.297   1.288   1.241   1.138
   136.35    1.217   1.229   1.214   1.240   1.250   1.247   1.185   1.247   1.288   1.298   1.264   1.329   1.318   1.365   1.357   1.342   1.296   1.323   1.361   1.282   1.281   1.286   1.348   1.330   1.294   1.252   1.283   1.302   1.274   1.233   1.211   1.198   1.201
   132.29    1.224   1.205   1.236   1.232   1.266   1.215   1.202   1.221   1.203   1.257   1.195   1.291   1.303   1.334   1.314   1.322   1.300   1.327   1.351   1.260   1.259   1.303   1.353   1.311   1.282   1.323   1.314   1.284   1.301   1.249   1.254   1.249   1.241
   128.23    1.249   1.215   1.219   1.200   1.230   1.240   1.241   1.250   1.210   1.192   1.161   1.252   1.339   1.314   1.267   1.335   1.359   1.358   1.344   1.298   1.252   1.341   1.335   1.304   1.310   1.289   1.342   1.349   1.300   1.275   1.243   1.299   1.244
   124.16    1.247   1.188   1.201   1.233   1.218   1.250   1.292   1.301   1.282   1.253   1.219   1.213   1.273   1.337   1.332   1.354   1.367   1.307   1.324   1.257   1.327   1.342   1.325   1.295   1.276   1.348   1.332   1.346   1.340   1.270   1.227   1.258   1.254
   120.10    1.246   1.212   1.217   1.198   1.205   1.276   1.348   1.330   1.279   1.254   1.258   1.196   1.247   1.219   1.232   1.271   1.301   1.323   1.385   1.357   1.369   1.300   1.318   1.275   1.278   1.311   1.348   1.316   1.292   1.223   1.234   1.201   1.249
   116.04    1.254   1.253   1.211   1.212   1.214   1.269   1.315   1.254   1.258   1.261   1.253   1.265   1.267   1.249   1.242   1.246   1.281   1.333   1.369   1.338   1.336   1.267   1.289   1.297   1.306   1.259   1.298   1.316   1.260   1.236   1.209   1.196   1.289
   111.98    1.314   1.337   1.289   1.222   1.248   1.266   1.256   1.289   1.248   1.255   1.311   1.291   1.308   1.320   1.308   1.305   1.259   1.290   1.309   1.297   1.302   1.268   1.332   1.300   1.305   1.278   1.278   1.251   1.215   1.221   1.257   1.212   1.232
   107.91    1.282   1.318   1.284   1.256   1.264   1.221   1.221   1.255   1.305   1.270   1.249   1.257   1.285   1.312   1.303   1.304   1.296   1.324   1.297   1.248   1.286   1.295   1.319   1.360   1.351   1.274   1.216   1.236   1.242   1.249   1.245   1.278   1.236
   103.85    1.238   1.275   1.247   1.241   1.216   1.210   1.203   1.244   1.236   1.226   1.216   1.195   1.289   1.311   1.319   1.349   1.304   1.288   1.293   1.303   1.311   1.269   1.341   1.408   1.377   1.358   1.306   1.274   1.268   1.289   1.283   1.283   1.224
    99.79    1.281   1.253   1.248   1.211   1.216   1.222   1.204   1.192   1.212   1.244   1.227   1.256   1.351   1.308   1.343   1.349   1.346   1.318   1.329   1.320   1.335   1.356   1.359   1.323   1.319   1.367   1.346   1.266   1.293   1.296   1.289   1.273   1.306
    95.73    1.293   1.315   1.308   1.229   1.203   1.214   1.225   1.235   1.201   1.214   1.228   1.286   1.343   1.305   1.316   1.389   1.332   1.302   1.319   1.328   1.326   1.307   1.319   1.358   1.345   1.376   1.324   1.285   1.258   1.278   1.288   1.259   1.266
    91.66    1.337   1.318   1.335   1.246   1.244   1.258   1.309   1.267   1.220   1.250   1.289   1.346   1.355   1.321   1.342   1.345   1.326   1.316   1.387   1.331   1.279   1.272   1.261   1.337   1.327   1.320   1.369   1.301   1.300   1.290   1.303   1.273   1.256
    87.60    1.333   1.330   1.323   1.285   1.293   1.328   1.340   1.352   1.325   1.334   1.349   1.366   1.326   1.327   1.334   1.281   1.344   1.334   1.328   1.322   1.267   1.311   1.297   1.339   1.325   1.304   1.361   1.301   1.286   1.318   1.334   1.263   1.263
    83.54    1.241   1.266   1.292   1.240   1.363   1.325   1.351   1.336   1.306   1.344   1.376   1.285   1.261   1.299   1.286   1.300   1.338   1.335   1.294   1.259   1.275   1.279   1.321   1.359   1.366   1.350   1.357   1.354   1.293   1.260   1.259   1.265   1.302
    79.48    1.231   1.198   1.247   1.288   1.286   1.284   1.332   1.290   1.311   1.296   1.306   1.259   1.249   1.248   1.256   1.257   1.279   1.324   1.266   1.190   1.246   1.281   1.364   1.337   1.359   1.371   1.325   1.337   1.253   1.256   1.277   1.290   1.317
    75.41    1.220   1.203   1.237   1.264   1.298   1.265   1.291   1.311   1.304   1.294   1.304   1.309   1.293   1.269   1.235   1.254   1.226   1.246   1.256   1.315   1.297   1.309   1.291   1.337   1.342   1.319   1.350   1.313   1.318   1.266   1.297   1.326   1.310
    71.35    1.223   1.261   1.248   1.242   1.232   1.316   1.307   1.316   1.347   1.289   1.258   1.276   1.290   1.245   1.219   1.237   1.203   1.247   1.273   1.285   1.280   1.341   1.301   1.339   1.313   1.370   1.369   1.332   1.316   1.301   1.273   1.308   1.312
    67.29    1.318   1.265   1.243   1.258   1.261   1.269   1.293   1.293   1.336   1.362   1.303   1.270   1.268   1.253   1.238   1.246   1.228   1.265   1.233   1.260   1.257   1.331   1.358   1.362   1.308   1.339   1.348   1.310   1.310   1.289   1.245   1.280   1.298
    63.23    1.283   1.279   1.228   1.265   1.278   1.294   1.284   1.251   1.322   1.330   1.300   1.277   1.256   1.267   1.250   1.251   1.228   1.270   1.271   1.287   1.262   1.294   1.384   1.406   1.313   1.396   1.317   1.317   1.336   1.276   1.284   1.284   1.306
    59.16    1.270   1.265   1.243   1.259   1.301   1.250   1.313   1.319   1.318   1.332   1.372   1.313   1.300   1.221   1.267   1.265   1.267   1.244   1.294   1.255   1.275   1.277   1.344   1.386   1.336   1.313   1.323   1.355   1.316   1.254   1.277   1.320   1.277
    55.10    1.291   1.253   1.222   1.264   1.291   1.323   1.292   1.313   1.288   1.313   1.400   1.356   1.315   1.350   1.275   1.262   1.313   1.340   1.298   1.346   1.273   1.289   1.277   1.300   1.335   1.295   1.282   1.313   1.239   1.249   1.296   1.260   1.255
    51.04    1.305   1.328   1.274   1.307   1.276   1.315   1.332   1.269   1.316   1.303   1.333   1.343   1.287   1.310   1.299   1.334   1.323   1.323   1.298   1.339   1.291   1.318   1.311   1.297   1.311   1.306   1.302   1.281   1.263   1.295   1.286   1.279   1.313
    46.98    1.281   1.294   1.294   1.312   1.266   1.289   1.325   1.280   1.296   1.290   1.322   1.348   1.332   1.315   1.330   1.353   1.356   1.375   1.352   1.304   1.329   1.342   1.303   1.333   1.329   1.337   1.285   1.286   1.301   1.233   1.283   1.242   1.282
    42.91    1.290   1.263   1.276   1.366   1.265   1.295   1.320   1.304   1.322   1.367   1.331   1.380   1.351   1.346   1.320   1.291   1.371   1.356   1.346   1.314   1.258   1.291   1.295   1.295   1.311   1.297   1.325   1.311   1.267   1.245   1.227   1.248   1.292
    38.85    1.263   1.286   1.317   1.323   1.344   1.362   1.307   1.301   1.342   1.338   1.338   1.322   1.306   1.306   1.288   1.287   1.332   1.345   1.308   1.293   1.302   1.293   1.309   1.319   1.319   1.298   1.276   1.287   1.284   1.276   1.240   1.237   1.280
    34.79    1.270   1.307   1.297   1.338   1.293   1.335   1.284   1.303   1.329   1.338   1.302   1.282   1.330   1.295   1.306   1.316   1.323   1.330   1.311   1.259   1.296   1.310   1.271   1.324   1.302   1.328   1.272   1.269   1.246   1.311   1.263   1.252   1.292
    30.73    1.302   1.308   1.315   1.294   1.349   1.301   1.293   1.277   1.310   1.302   1.284   1.314   1.306   1.306   1.312   1.324   1.328   1.302   1.283   1.295   1.322   1.343   1.320   1.304   1.313   1.301   1.310   1.272   1.289   1.278   1.258   1.231   1.296
    26.66    1.312   1.301   1.318   1.268   1.296   1.308   1.297   1.236   1.255   1.254   1.282   1.299   1.274   1.265   1.266   1.296   1.288   1.299   1.289   1.275   1.279   1.283   1.324   1.317   1.290   1.316   1.296   1.252   1.282   1.238   1.231   1.236   1.232
    22.60    1.279   1.258   1.313   1.286   1.307   1.338   1.279   1.291   1.251   1.254   1.279   1.309   1.277   1.245   1.278   1.297   1.287   1.293   1.281   1.276   1.269   1.269   1.285   1.308   1.291   1.282   1.276   1.271   1.241   1.254   1.236   1.253   1.227

   Mean standard deviation across all grid points:
      u component:    2.128 m/s
      v component:    1.632 m/s
      w component:    1.286 m/s


U-component (X) statistics from the hub grid point:

   Mean =  20.0000 m/s
   TI   =  10.5411 %

Nyquist frequency of turbulent wind field =        10.000 Hz


Processing complete.  308.98 CPU seconds used.
