
This summary file was generated by TurbSim (v1.06.00, 21-Sep-2012) on 15-Sep-2020 at 15:48:51.


Runtime Options:

  65432154  Random seed #1
    RANLUX  Type of random number generator
         F  Output binary HH turbulence parameters?
         F  Output formatted turbulence parameters?
         F  Output AeroDyn HH files?
         T  Output AeroDyn FF files?
         F  Output BLADED FF files?
         T  Output tower data?
         F  Output formatted FF files?
         F  Output coherent turbulence time step file?
         T  Clockwise rotation when looking downwind?
 0 -  NONE  IEC turbulence models scaled to exact specified standard deviation


Turbine/Model Specifications:

        33  Vertical grid-point matrix dimension
        33  Horizontal grid-point matrix dimension
     0.050  Time step [seconds]
   370.000  Analysis time [seconds]
   370.000  Usable output time [seconds]
    87.600  Hub height [m]
   130.000  Grid height [m]
   130.000  Grid width [m]
     0.000  Vertical flow angle [degrees]
     0.000  Horizontal flow angle [degrees]


Meteorological Boundary Conditions:

    SMOOTH  RISO Smooth Terrain spectral model
       N/A  IEC standard
       N/A  IEC turbulence characteristic
       N/A  IEC turbulence type
       N/A  IEC Extreme Turbulence Model (ETM) "c" parameter [m/s]
       IEC  Wind profile type
    87.600  Reference height [m]
    10.000  Reference wind speed [m/s]
       N/A  Jet height [m]
     0.143  Power law exponent
     0.010  Surface roughness length [m]


Non-IEC Meteorological Boundary Conditions:

    45.000  Site latitude [degrees]
     0.050  Gradient Richardson number
     0.425  Friction or shear velocity [m/s]
       N/A  Mixing layer depth [m]
    -0.181  Mean hub u'w' Reynolds stress
       N/A  Mean hub u'v' Reynolds stress
       N/A  Mean hub v'w' Reynolds stress
(   10.000,  0.00    )  u-component coherence parameters
(    7.500,  0.00    )  v-component coherence parameters
(    7.500,  0.00    )  w-component coherence parameters
     0.000  Coherence exponent


You have requested that the following file(s) be generated:

   unsteady_tmp_10.bts (AeroDyn/TurbSim full-field wind file)


Turbulence Simulation Scaling Parameter Summary:

   Turbulence model used                            =  RISO Smooth Terrain
   Gradient Richardson number                       =    0.050
   Monin-Obukhov (M-O) z/L parameter                =    0.067
   Monin-Obukhov (M-O) length scale                 = 1314.000 m
   Mean wind speed at hub height                    =   10.000 m/s

   Wind profile type                                =  Power law on rotor disk, logarithmic elsewhere
   Power law exponent                               =    0.143
   Mean shear across rotor disk                     =    0.018 (m/s)/m
   Assumed rotor diameter                           =  130.000 m
   Surface roughness length                         =    0.010 m

   Number of time steps in the FFT                  =     7680
   Number of time steps output                      =     7660


Mean Flow Angles:

   Vertical   =   0.0 degrees
   Horizontal =   0.0 degrees

Mean Wind Speed Profile:

   Height    Wind Speed   Horizontal Angle  U-comp (X)   V-comp (Y)   W-comp (Z)
     (m)        (m/s)         (degrees)       (m/s)        (m/s)        (m/s)   
   ------    ----------   ----------------  ----------   ----------   ----------
    152.6       10.61            0.00         10.61         0.00         0.00
    148.5       10.78            0.00         10.78         0.00         0.00
    144.5       10.74            0.00         10.74         0.00         0.00
    140.4       10.70            0.00         10.70         0.00         0.00
    136.4       10.65            0.00         10.65         0.00         0.00
    132.3       10.61            0.00         10.61         0.00         0.00
    128.2       10.56            0.00         10.56         0.00         0.00
    124.2       10.51            0.00         10.51         0.00         0.00
    120.1       10.46            0.00         10.46         0.00         0.00
    116.0       10.41            0.00         10.41         0.00         0.00
    112.0       10.36            0.00         10.36         0.00         0.00
    107.9       10.30            0.00         10.30         0.00         0.00
    103.9       10.25            0.00         10.25         0.00         0.00
     99.8       10.19            0.00         10.19         0.00         0.00
     95.7       10.13            0.00         10.13         0.00         0.00
     91.7       10.07            0.00         10.07         0.00         0.00
     87.6       10.00            0.00         10.00         0.00         0.00
     83.5        9.93            0.00          9.93         0.00         0.00
     79.5        9.86            0.00          9.86         0.00         0.00
     75.4        9.79            0.00          9.79         0.00         0.00
     71.4        9.71            0.00          9.71         0.00         0.00
     67.3        9.63            0.00          9.63         0.00         0.00
     63.2        9.54            0.00          9.54         0.00         0.00
     59.2        9.45            0.00          9.45         0.00         0.00
     55.1        9.36            0.00          9.36         0.00         0.00
     51.0        9.26            0.00          9.26         0.00         0.00
     47.0        9.15            0.00          9.15         0.00         0.00
     42.9        9.03            0.00          9.03         0.00         0.00
     38.9        8.90            0.00          8.90         0.00         0.00
     34.8        8.76            0.00          8.76         0.00         0.00
     30.7        8.61            0.00          8.61         0.00         0.00
     26.7        8.44            0.00          8.44         0.00         0.00
     22.6        8.24            0.00          8.24         0.00         0.00
     18.5        8.29            0.00          8.29         0.00         0.00
     14.5        8.02            0.00          8.02         0.00         0.00
     10.4        7.65            0.00          7.65         0.00         0.00
      6.4        7.11            0.00          7.11         0.00         0.00
      2.3        5.98            0.00          5.98         0.00         0.00


Harvested Random Seeds after Generation of the Random Numbers:

    117101760 K1
            0 K2


Scaling statistics from the hub grid point:

   Cross-Component  Scaling Factor
   ---------------  --------------
   u'w'               -0.90771E-01
   u'v'                0.00000E+00
   v'w'                0.00000E+00


Hub-Height Simulated Turbulence Statistical Summary:

   Type of Wind        Min (m/s)   Mean (m/s)    Max (m/s)  Sigma (m/s)       TI (%)
   ----------------    ---------   ----------    ---------  -----------       ------
   Longitudinal (u)         6.53        10.00        13.50        1.086       10.856
   Lateral (v)             -2.49         0.00         3.24        0.804        8.040
   Vertical (w)            -1.98         0.00         2.69        0.629        6.294
   U component              6.53        10.00        13.50        1.086       10.856
   V component             -2.49         0.00         3.24        0.804        8.040
   W component             -1.98         0.00         2.69        0.629        6.294
   Horizontal (U&V)         6.53        10.03        13.50        1.085       10.820
   Total                    6.55        10.05        13.52        1.083       10.774

                       Min Reynolds     Mean Reynolds    Max Reynolds    Correlation
   Product             Stress (m/s)^2   Stress (m/s)^2   Stress (m/s)^2  Coefficient
   ----------------    --------------   --------------   --------------  -----------
   u'w'                     -5.181            -0.181             2.433        -0.264
   u'v'                     -2.925             0.132             4.791         0.151
   v'w'                     -2.732             0.004             2.838         0.007


   Friction Velocity (Ustar)  =      0.425 m/s
   Maximum Instantaneous TKE  =      6.329 (m/s)^2
   Maximum Instantaneous CTKE =      2.710 (m/s)^2


Grid Point Variance Summary:

   Y-coord  -65.00  -60.94  -56.88  -52.81  -48.75  -44.69  -40.62  -36.56  -32.50  -28.44  -24.38  -20.31  -16.25  -12.19   -8.12   -4.06    0.00    4.06    8.12   12.19   16.25   20.31   24.38   28.44   32.50   36.56   40.62   44.69   48.75   52.81   56.88   60.94   65.00

   Height   Standard deviation at grid points for the u component:
   152.60    0.729   0.802   0.828   0.801   0.721   0.773   0.818   0.861   0.862   0.834   0.784   0.787   0.826   0.771   0.723   0.822   0.781   0.791   0.842   0.826   0.868   0.801   0.859   0.855   0.858   0.905   0.854   0.837   0.852   0.940   0.983   1.017   1.048
   148.54    0.829   0.795   0.809   0.758   0.729   0.780   0.809   0.839   0.853   0.844   0.815   0.808   0.785   0.794   0.731   0.748   0.807   0.850   0.772   0.793   0.806   0.807   0.844   0.794   0.868   0.925   0.910   0.883   0.902   0.884   0.912   0.950   1.027
   144.48    0.820   0.834   0.803   0.797   0.749   0.791   0.780   0.822   0.832   0.836   0.837   0.814   0.863   0.834   0.792   0.776   0.790   0.807   0.852   0.904   0.889   0.892   0.866   0.809   0.895   0.902   0.931   0.916   0.961   0.895   0.915   1.043   1.081
   140.41    0.864   0.837   0.838   0.809   0.800   0.798   0.834   0.904   0.919   0.924   0.886   0.840   0.875   0.885   0.813   0.859   0.831   0.849   0.852   0.909   0.880   0.886   0.810   0.806   0.864   0.926   0.919   0.863   0.944   0.888   0.967   0.980   1.003
   136.35    0.968   0.819   0.876   0.862   0.790   0.820   0.901   0.886   0.971   0.903   0.911   0.846   0.884   0.827   0.865   0.856   0.867   0.894   0.946   0.915   0.933   0.908   0.867   0.846   0.883   0.894   0.862   0.855   0.874   0.903   0.931   0.915   0.939
   132.29    0.984   0.955   0.860   0.826   0.823   0.860   0.927   0.995   0.975   1.005   0.925   0.880   0.809   0.863   0.873   0.907   0.884   0.947   0.941   1.007   0.975   0.955   0.967   0.929   0.927   0.912   0.907   0.896   0.885   0.909   0.886   0.883   0.835
   128.23    0.980   0.989   0.908   0.922   0.911   0.985   0.973   1.013   1.034   1.075   1.005   0.940   0.883   0.913   0.906   0.942   0.938   0.910   0.906   0.939   0.978   1.016   0.961   1.000   0.927   0.899   0.910   0.924   0.949   0.947   0.879   0.878   0.871
   124.16    1.027   1.011   1.003   0.971   0.978   1.001   1.076   1.049   1.078   1.120   1.105   1.031   1.010   1.010   0.966   0.972   0.997   0.964   0.968   0.929   0.950   1.002   0.959   0.946   0.935   0.875   0.879   0.891   0.928   0.911   0.944   0.961   0.919
   120.10    1.068   1.069   1.113   0.994   1.035   1.134   1.131   1.185   1.162   1.180   1.140   1.026   1.045   1.031   1.005   0.942   0.983   1.018   0.942   0.961   0.928   0.961   0.964   0.967   0.921   0.834   0.873   0.853   0.934   0.916   0.947   0.931   0.854
   116.04    1.109   1.139   1.122   1.022   1.115   1.144   1.191   1.197   1.218   1.165   1.151   1.114   1.069   1.046   1.055   1.015   0.960   0.978   1.011   0.978   0.980   0.939   0.910   0.910   0.940   0.942   0.881   0.970   0.891   0.877   0.911   0.877   0.916
   111.98    1.093   1.066   1.123   1.125   1.128   1.195   1.176   1.223   1.229   1.203   1.226   1.171   1.079   1.065   1.103   1.077   1.011   1.004   1.021   1.001   0.933   0.916   0.901   0.919   0.944   0.877   0.892   0.875   0.907   0.935   0.927   0.964   0.955
   107.91    1.082   1.157   1.164   1.151   1.193   1.189   1.171   1.188   1.174   1.185   1.156   1.156   1.101   1.131   1.150   1.145   1.099   0.996   1.065   1.052   1.008   0.937   0.918   0.924   0.908   0.964   0.873   0.844   0.868   0.907   0.953   0.930   1.008
   103.85    1.090   1.140   1.217   1.186   1.183   1.209   1.133   1.116   1.072   1.130   1.137   1.096   1.078   1.139   1.143   1.122   1.086   1.060   1.026   1.004   1.019   0.981   0.961   0.918   0.918   0.901   0.887   0.864   0.804   0.963   0.997   0.976   0.963
    99.79    1.111   1.219   1.295   1.243   1.224   1.182   1.196   1.200   1.147   1.151   1.058   1.046   1.108   1.128   1.127   1.113   1.136   1.072   1.036   0.990   0.980   1.004   0.950   0.929   0.897   0.890   0.910   0.899   0.904   0.991   0.974   0.970   0.968
    95.73    1.151   1.220   1.249   1.235   1.194   1.167   1.171   1.198   1.196   1.089   1.033   1.080   1.118   1.130   1.057   1.040   1.028   1.072   1.052   0.980   0.931   0.944   0.951   0.890   0.821   0.862   0.905   0.913   0.920   0.960   0.916   0.955   1.002
    91.66    1.176   1.218   1.262   1.250   1.247   1.269   1.149   1.180   1.000   1.062   1.174   1.106   1.156   1.151   1.096   1.050   1.015   1.045   1.006   0.975   0.964   0.961   0.980   0.909   0.874   0.863   0.939   0.928   0.905   0.959   0.932   0.931   0.991
    87.60    1.133   1.168   1.150   1.208   1.266   1.216   1.197   1.120   1.055   1.065   1.069   1.153   1.085   1.130   1.096   1.069   1.086   1.070   1.040   1.036   0.977   0.970   0.944   0.953   0.893   0.889   0.888   0.868   0.889   0.872   0.935   0.993   0.984
    83.54    1.130   1.120   1.229   1.227   1.172   1.171   1.170   1.112   1.149   1.114   1.128   1.169   1.074   1.096   1.033   1.034   1.049   1.124   1.077   1.095   1.078   1.032   1.001   0.971   0.883   0.859   0.925   0.918   0.903   0.879   0.901   0.952   0.981
    79.48    1.116   1.159   1.196   1.238   1.186   1.096   1.097   1.121   1.138   1.150   1.194   1.095   1.112   1.063   1.054   1.031   1.056   1.115   1.164   1.072   1.057   0.943   0.987   0.980   0.915   0.890   0.925   0.934   0.903   0.951   0.930   0.897   0.987
    75.41    1.103   1.136   1.182   1.157   1.132   1.113   1.070   1.043   1.104   1.116   1.102   1.033   1.064   1.057   0.999   1.063   1.112   1.124   1.110   1.058   1.034   1.016   0.988   0.971   0.909   0.940   0.920   0.919   0.896   0.925   0.862   0.964   0.970
    71.35    1.173   1.210   1.178   1.228   1.194   1.111   1.095   1.079   1.033   1.093   1.057   0.998   1.096   1.059   1.087   1.070   1.121   1.080   1.103   1.051   1.065   0.987   1.001   0.970   1.035   0.917   0.918   0.896   0.898   0.931   0.981   0.996   0.994
    67.29    1.081   1.214   1.204   1.233   1.148   1.130   1.129   1.107   1.072   1.120   1.097   1.124   1.120   1.105   1.084   1.143   1.091   1.053   1.077   1.055   1.004   0.992   1.004   0.929   0.975   0.928   0.968   0.924   0.943   0.938   0.864   0.963   0.932
    63.23    1.183   1.221   1.185   1.183   1.245   1.187   1.172   1.149   1.120   1.089   1.144   1.091   1.110   1.098   1.084   1.105   1.038   1.051   1.033   0.976   0.927   0.935   0.979   1.002   1.013   0.980   1.002   0.913   0.822   0.872   0.876   0.956   0.892
    59.16    1.145   1.167   1.140   1.144   1.147   1.154   1.164   1.199   1.284   1.155   1.161   1.123   1.096   1.062   1.027   1.029   1.015   0.975   0.949   0.972   0.925   0.986   1.016   0.987   0.974   0.988   0.933   0.912   0.891   0.863   0.852   0.936   0.885
    55.10    1.156   1.168   1.172   1.158   1.127   1.198   1.180   1.284   1.333   1.216   1.172   1.219   1.179   1.078   0.946   1.008   0.978   0.926   0.917   0.911   0.906   0.951   0.992   0.968   0.974   0.974   0.918   0.905   0.898   0.887   0.896   0.987   0.966
    51.04    1.189   1.151   1.158   1.172   1.162   1.229   1.207   1.291   1.317   1.274   1.248   1.250   1.153   1.095   1.053   1.018   0.984   0.935   0.954   0.927   1.028   0.985   0.961   1.011   0.996   0.969   0.958   0.944   0.908   0.965   0.993   1.016   1.014
    46.98    1.121   1.141   1.059   1.130   1.152   1.186   1.245   1.261   1.287   1.245   1.264   1.266   1.126   1.126   1.111   1.021   0.976   0.941   0.968   0.985   0.991   0.973   0.967   1.005   0.965   1.003   0.983   0.903   0.920   0.964   0.989   1.028   1.016
    42.91    1.144   1.039   1.118   1.104   1.060   1.101   1.121   1.170   1.212   1.236   1.297   1.271   1.185   1.117   1.094   1.058   1.059   1.027   1.014   1.000   0.984   0.935   0.929   0.987   0.974   0.893   0.869   0.918   0.954   0.977   1.060   1.077   1.059
    38.85    1.065   1.080   1.091   1.050   1.018   1.099   1.211   1.220   1.161   1.181   1.269   1.194   1.205   1.135   1.107   1.086   1.047   1.030   1.007   1.096   1.050   0.979   0.946   1.037   1.078   0.942   0.891   0.951   0.961   0.985   1.033   1.063   1.053
    34.79    1.052   1.036   1.021   1.085   1.045   0.995   1.078   1.124   1.180   1.189   1.225   1.167   1.171   1.093   1.164   1.123   1.099   1.045   1.054   1.073   1.049   1.027   0.998   1.014   1.053   0.959   0.929   0.887   0.931   1.056   1.016   1.110   1.117
    30.73    1.041   1.098   1.107   1.118   1.124   1.090   1.065   1.122   1.175   1.217   1.245   1.177   1.156   1.158   1.172   1.117   1.159   1.100   1.127   1.112   1.053   1.073   1.016   1.002   0.986   0.966   0.920   0.935   0.974   0.991   1.026   1.068   1.122
    26.66    1.090   1.108   1.066   1.043   1.155   1.086   1.104   1.090   1.162   1.156   1.184   1.230   1.190   1.247   1.213   1.161   1.150   1.086   1.130   1.173   1.168   1.153   0.968   1.018   1.051   0.935   0.958   0.930   0.932   0.955   0.980   1.053   1.083
    22.60    1.087   1.092   1.034   1.053   1.143   1.159   1.121   1.128   1.139   1.197   1.203   1.204   1.152   1.200   1.239   1.159   1.192   1.221   1.202   1.175   1.119   1.116   1.038   0.972   1.019   1.007   1.003   0.885   0.935   0.968   0.989   1.039   1.028

   Height   Standard deviation at grid points for the v component:
   152.60    0.905   0.878   0.873   0.927   0.908   0.849   0.874   0.857   0.843   0.828   0.854   0.898   0.887   0.856   0.808   0.813   0.811   0.808   0.754   0.796   0.811   0.852   0.843   0.850   0.824   0.811   0.814   0.782   0.774   0.767   0.756   0.751   0.752
   148.54    0.888   0.867   0.850   0.902   0.890   0.895   0.887   0.819   0.813   0.837   0.855   0.866   0.846   0.859   0.845   0.814   0.851   0.801   0.778   0.801   0.827   0.863   0.889   0.852   0.846   0.828   0.804   0.810   0.758   0.725   0.696   0.706   0.737
   144.48    0.921   0.923   0.894   0.900   0.920   0.931   0.917   0.875   0.871   0.831   0.858   0.858   0.871   0.847   0.852   0.825   0.858   0.866   0.825   0.824   0.842   0.849   0.849   0.827   0.859   0.846   0.832   0.795   0.788   0.748   0.717   0.721   0.705
   140.41    0.935   0.935   0.907   0.944   0.940   0.945   0.948   0.891   0.878   0.842   0.876   0.897   0.923   0.894   0.912   0.871   0.864   0.846   0.869   0.864   0.903   0.855   0.840   0.836   0.852   0.860   0.834   0.826   0.817   0.777   0.745   0.746   0.724
   136.35    0.942   0.958   0.903   0.961   0.957   0.936   0.904   0.891   0.937   0.867   0.873   0.864   0.916   0.879   0.861   0.894   0.888   0.865   0.889   0.890   0.899   0.884   0.860   0.855   0.808   0.851   0.857   0.822   0.843   0.777   0.745   0.773   0.725
   132.29    0.993   0.968   0.978   0.948   0.961   0.946   0.921   0.895   0.888   0.850   0.816   0.849   0.872   0.863   0.832   0.868   0.898   0.911   0.908   0.872   0.887   0.875   0.840   0.853   0.837   0.851   0.860   0.865   0.877   0.839   0.831   0.813   0.814
   128.23    0.976   0.986   0.956   0.905   0.943   0.917   0.882   0.880   0.870   0.855   0.828   0.853   0.831   0.823   0.826   0.848   0.878   0.889   0.922   0.901   0.889   0.869   0.826   0.848   0.834   0.862   0.854   0.878   0.875   0.853   0.837   0.839   0.802
   124.16    0.985   0.966   0.931   0.903   0.884   0.882   0.839   0.863   0.847   0.815   0.853   0.847   0.811   0.860   0.854   0.845   0.888   0.913   0.960   0.961   0.917   0.866   0.811   0.827   0.825   0.839   0.822   0.841   0.843   0.874   0.849   0.857   0.878
   120.10    0.952   0.881   0.851   0.873   0.869   0.859   0.814   0.854   0.813   0.824   0.827   0.871   0.858   0.851   0.850   0.856   0.846   0.910   0.945   0.956   0.906   0.878   0.800   0.791   0.829   0.802   0.834   0.825   0.834   0.852   0.855   0.863   0.913
   116.04    0.938   0.867   0.844   0.833   0.860   0.851   0.852   0.872   0.842   0.855   0.822   0.837   0.838   0.820   0.846   0.857   0.863   0.938   0.933   0.924   0.977   0.904   0.881   0.845   0.820   0.870   0.875   0.851   0.867   0.883   0.889   0.897   0.897
   111.98    0.909   0.898   0.886   0.844   0.860   0.848   0.869   0.840   0.861   0.834   0.801   0.867   0.870   0.900   0.853   0.835   0.849   0.921   0.932   0.959   0.969   0.952   0.945   0.886   0.864   0.864   0.870   0.896   0.902   0.916   0.907   0.873   0.911
   107.91    0.923   0.931   0.923   0.881   0.887   0.860   0.864   0.864   0.889   0.825   0.840   0.867   0.881   0.896   0.862   0.835   0.883   0.898   0.935   0.937   0.928   0.935   0.942   0.909   0.932   0.898   0.938   0.920   0.892   0.897   0.870   0.864   0.894
   103.85    0.894   0.943   0.920   0.872   0.893   0.858   0.897   0.921   0.860   0.849   0.900   0.890   0.887   0.866   0.854   0.866   0.885   0.908   0.918   0.937   0.889   0.891   0.897   0.908   0.905   0.972   0.949   0.960   0.931   0.966   0.877   0.863   0.883
    99.79    0.868   0.898   0.910   0.891   0.835   0.846   0.866   0.903   0.877   0.880   0.931   0.900   0.886   0.793   0.802   0.863   0.856   0.893   0.915   0.880   0.886   0.853   0.850   0.918   0.928   0.914   0.972   0.961   0.962   0.935   0.856   0.877   0.877
    95.73    0.867   0.894   0.896   0.881   0.828   0.798   0.834   0.883   0.889   0.867   0.873   0.892   0.835   0.803   0.799   0.862   0.854   0.898   0.907   0.890   0.895   0.880   0.843   0.897   0.905   0.903   0.922   0.911   0.900   0.909   0.858   0.869   0.889
    91.66    0.905   0.923   0.865   0.868   0.866   0.797   0.810   0.834   0.869   0.863   0.869   0.846   0.823   0.809   0.839   0.835   0.817   0.879   0.889   0.886   0.901   0.870   0.864   0.901   0.930   0.932   0.906   0.876   0.868   0.880   0.832   0.842   0.854
    87.60    0.886   0.878   0.865   0.853   0.806   0.779   0.824   0.865   0.860   0.884   0.845   0.847   0.833   0.850   0.825   0.815   0.804   0.812   0.868   0.872   0.888   0.841   0.861   0.903   0.917   0.901   0.918   0.924   0.926   0.905   0.851   0.904   0.854
    83.54    0.863   0.877   0.865   0.864   0.825   0.819   0.840   0.835   0.838   0.813   0.853   0.836   0.844   0.844   0.808   0.821   0.791   0.840   0.872   0.826   0.858   0.857   0.832   0.875   0.875   0.872   0.880   0.922   0.917   0.906   0.910   0.884   0.885
    79.48    0.869   0.884   0.877   0.883   0.872   0.835   0.817   0.844   0.820   0.835   0.847   0.877   0.888   0.843   0.811   0.790   0.800   0.827   0.832   0.851   0.881   0.821   0.838   0.828   0.839   0.850   0.852   0.877   0.876   0.861   0.910   0.918   0.879
    75.41    0.883   0.862   0.887   0.889   0.899   0.891   0.860   0.873   0.818   0.842   0.822   0.865   0.879   0.840   0.818   0.800   0.779   0.822   0.821   0.820   0.843   0.830   0.869   0.862   0.865   0.854   0.866   0.893   0.864   0.877   0.910   0.894   0.910
    71.35    0.881   0.914   0.922   0.904   0.921   0.913   0.885   0.859   0.821   0.851   0.827   0.813   0.847   0.846   0.833   0.838   0.794   0.788   0.758   0.767   0.805   0.867   0.888   0.885   0.853   0.855   0.856   0.887   0.900   0.928   0.911   0.930   0.914
    67.29    0.877   0.931   0.947   0.966   1.012   0.934   0.869   0.848   0.846   0.854   0.858   0.806   0.822   0.833   0.860   0.836   0.841   0.833   0.784   0.775   0.797   0.830   0.815   0.794   0.814   0.824   0.858   0.869   0.911   0.889   0.909   0.916   0.912
    63.23    0.894   0.945   0.916   0.962   1.004   0.903   0.917   0.855   0.881   0.837   0.846   0.853   0.832   0.822   0.819   0.809   0.802   0.785   0.790   0.805   0.796   0.804   0.787   0.809   0.827   0.859   0.881   0.873   0.877   0.867   0.890   0.944   0.922
    59.16    0.935   0.961   0.921   0.963   0.962   0.950   0.877   0.852   0.890   0.878   0.884   0.815   0.812   0.818   0.809   0.782   0.783   0.768   0.764   0.781   0.777   0.792   0.800   0.810   0.817   0.847   0.883   0.841   0.851   0.895   0.885   0.908   0.906
    55.10    0.903   0.940   0.961   0.961   0.936   0.946   0.852   0.885   0.900   0.876   0.894   0.853   0.827   0.794   0.807   0.773   0.753   0.765   0.761   0.748   0.748   0.781   0.798   0.834   0.829   0.838   0.874   0.870   0.813   0.847   0.853   0.895   0.912
    51.04    0.941   0.958   0.940   0.923   0.944   0.929   0.882   0.903   0.908   0.893   0.920   0.836   0.796   0.754   0.772   0.758   0.774   0.722   0.758   0.776   0.768   0.798   0.830   0.840   0.842   0.868   0.848   0.840   0.816   0.804   0.819   0.859   0.870
    46.98    0.956   0.973   0.948   0.937   0.895   0.887   0.861   0.875   0.891   0.874   0.857   0.854   0.796   0.776   0.739   0.760   0.759   0.765   0.789   0.793   0.801   0.808   0.792   0.790   0.816   0.823   0.852   0.811   0.834   0.823   0.783   0.816   0.870
    42.91    0.924   0.956   0.992   0.946   0.881   0.851   0.868   0.836   0.839   0.855   0.861   0.810   0.793   0.785   0.794   0.817   0.802   0.811   0.862   0.810   0.819   0.799   0.762   0.788   0.838   0.858   0.862   0.836   0.818   0.830   0.827   0.811   0.831
    38.85    0.920   0.889   0.907   0.900   0.866   0.837   0.866   0.847   0.857   0.884   0.849   0.828   0.855   0.816   0.822   0.832   0.845   0.832   0.852   0.830   0.823   0.848   0.792   0.797   0.846   0.852   0.848   0.874   0.864   0.820   0.791   0.815   0.826
    34.79    0.903   0.882   0.875   0.888   0.871   0.840   0.844   0.865   0.875   0.863   0.840   0.833   0.816   0.818   0.791   0.843   0.850   0.846   0.826   0.829   0.834   0.848   0.794   0.803   0.832   0.822   0.822   0.837   0.856   0.839   0.789   0.773   0.814
    30.73    0.915   0.894   0.869   0.875   0.849   0.860   0.861   0.848   0.832   0.836   0.805   0.820   0.793   0.811   0.796   0.822   0.839   0.811   0.829   0.858   0.830   0.832   0.815   0.821   0.818   0.844   0.821   0.812   0.817   0.838   0.826   0.816   0.842
    26.66    0.876   0.840   0.854   0.848   0.828   0.853   0.849   0.860   0.852   0.842   0.789   0.807   0.826   0.819   0.805   0.800   0.844   0.846   0.805   0.842   0.876   0.836   0.871   0.870   0.874   0.822   0.837   0.838   0.811   0.817   0.810   0.825   0.817
    22.60    0.835   0.857   0.841   0.823   0.841   0.833   0.872   0.856   0.859   0.830   0.841   0.819   0.790   0.836   0.808   0.763   0.806   0.855   0.828   0.841   0.874   0.869   0.870   0.870   0.869   0.867   0.864   0.841   0.846   0.850   0.834   0.838   0.814

   Height   Standard deviation at grid points for the w component:
   152.60    0.665   0.652   0.672   0.652   0.654   0.635   0.675   0.682   0.686   0.664   0.656   0.665   0.660   0.673   0.687   0.670   0.652   0.690   0.722   0.742   0.730   0.708   0.686   0.654   0.626   0.646   0.629   0.658   0.642   0.639   0.610   0.601   0.611
   148.54    0.666   0.670   0.666   0.639   0.647   0.623   0.643   0.659   0.675   0.666   0.649   0.661   0.671   0.660   0.661   0.654   0.686   0.710   0.709   0.730   0.714   0.691   0.665   0.660   0.664   0.639   0.669   0.661   0.641   0.628   0.627   0.611   0.615
   144.48    0.654   0.642   0.646   0.658   0.644   0.623   0.631   0.659   0.684   0.666   0.643   0.657   0.663   0.662   0.663   0.696   0.690   0.723   0.734   0.725   0.683   0.668   0.625   0.656   0.659   0.659   0.672   0.628   0.636   0.611   0.637   0.629   0.617
   140.41    0.661   0.637   0.637   0.641   0.628   0.623   0.628   0.652   0.677   0.651   0.673   0.676   0.660   0.701   0.693   0.740   0.725   0.713   0.719   0.688   0.675   0.666   0.638   0.638   0.657   0.670   0.683   0.650   0.659   0.675   0.644   0.655   0.639
   136.35    0.613   0.641   0.646   0.638   0.630   0.617   0.644   0.648   0.667   0.669   0.648   0.652   0.671   0.681   0.711   0.726   0.698   0.718   0.711   0.689   0.661   0.663   0.629   0.650   0.672   0.676   0.670   0.705   0.670   0.660   0.639   0.657   0.637
   132.29    0.597   0.629   0.648   0.632   0.624   0.657   0.668   0.660   0.688   0.686   0.679   0.643   0.669   0.688   0.709   0.684   0.716   0.716   0.740   0.696   0.709   0.670   0.671   0.669   0.683   0.658   0.654   0.658   0.637   0.658   0.642   0.639   0.637
   128.23    0.628   0.657   0.651   0.636   0.635   0.662   0.645   0.678   0.663   0.675   0.657   0.652   0.661   0.708   0.711   0.697   0.708   0.715   0.719   0.712   0.680   0.669   0.674   0.678   0.655   0.677   0.668   0.635   0.602   0.654   0.642   0.672   0.659
   124.16    0.642   0.638   0.686   0.653   0.641   0.651   0.648   0.665   0.650   0.693   0.667   0.677   0.681   0.700   0.721   0.699   0.698   0.700   0.721   0.698   0.697   0.701   0.707   0.679   0.660   0.650   0.636   0.630   0.633   0.649   0.671   0.646   0.670
   120.10    0.668   0.662   0.678   0.669   0.672   0.673   0.647   0.651   0.635   0.670   0.651   0.673   0.660   0.664   0.709   0.706   0.669   0.688   0.707   0.687   0.685   0.705   0.672   0.672   0.654   0.656   0.655   0.637   0.650   0.664   0.655   0.619   0.666
   116.04    0.698   0.694   0.665   0.659   0.667   0.639   0.658   0.657   0.658   0.652   0.661   0.696   0.678   0.708   0.691   0.666   0.633   0.689   0.695   0.701   0.671   0.658   0.649   0.667   0.656   0.632   0.630   0.630   0.642   0.660   0.667   0.644   0.676
   111.98    0.664   0.654   0.664   0.626   0.623   0.642   0.657   0.680   0.684   0.672   0.632   0.652   0.671   0.663   0.691   0.657   0.640   0.654   0.691   0.656   0.650   0.649   0.621   0.635   0.654   0.643   0.640   0.636   0.675   0.662   0.662   0.676   0.705
   107.91    0.656   0.640   0.657   0.629   0.602   0.612   0.649   0.671   0.652   0.676   0.629   0.602   0.658   0.665   0.665   0.682   0.642   0.652   0.642   0.652   0.622   0.600   0.595   0.602   0.637   0.655   0.639   0.652   0.652   0.673   0.678   0.690   0.701
   103.85    0.673   0.654   0.631   0.595   0.605   0.625   0.636   0.628   0.631   0.650   0.628   0.610   0.637   0.648   0.671   0.662   0.649   0.638   0.598   0.615   0.599   0.590   0.614   0.617   0.648   0.644   0.656   0.658   0.667   0.687   0.681   0.665   0.670
    99.79    0.663   0.653   0.642   0.627   0.647   0.660   0.637   0.644   0.610   0.613   0.619   0.630   0.631   0.633   0.666   0.652   0.645   0.614   0.610   0.625   0.611   0.597   0.576   0.610   0.625   0.605   0.621   0.643   0.696   0.680   0.687   0.650   0.656
    95.73    0.672   0.648   0.652   0.642   0.634   0.680   0.658   0.651   0.608   0.633   0.609   0.596   0.611   0.642   0.660   0.652   0.655   0.630   0.619   0.618   0.625   0.635   0.589   0.575   0.565   0.602   0.649   0.681   0.705   0.691   0.684   0.676   0.666
    91.66    0.692   0.683   0.672   0.657   0.670   0.649   0.660   0.641   0.619   0.613   0.632   0.622   0.584   0.635   0.638   0.667   0.638   0.606   0.611   0.643   0.639   0.627   0.594   0.596   0.576   0.616   0.674   0.673   0.676   0.661   0.673   0.677   0.676
    87.60    0.717   0.686   0.678   0.689   0.672   0.644   0.673   0.647   0.643   0.658   0.645   0.624   0.613   0.634   0.638   0.635   0.629   0.597   0.594   0.650   0.623   0.613   0.609   0.616   0.604   0.626   0.614   0.663   0.659   0.654   0.666   0.669   0.689
    83.54    0.679   0.692   0.709   0.705   0.685   0.669   0.698   0.661   0.650   0.645   0.628   0.629   0.630   0.632   0.651   0.633   0.617   0.616   0.608   0.646   0.638   0.604   0.589   0.606   0.605   0.615   0.643   0.651   0.657   0.623   0.625   0.665   0.671
    79.48    0.668   0.671   0.664   0.707   0.699   0.681   0.669   0.648   0.624   0.612   0.585   0.609   0.626   0.627   0.633   0.604   0.589   0.594   0.635   0.616   0.662   0.639   0.606   0.596   0.614   0.632   0.636   0.640   0.634   0.614   0.607   0.627   0.657
    75.41    0.639   0.644   0.670   0.693   0.662   0.683   0.674   0.654   0.641   0.596   0.609   0.593   0.625   0.629   0.622   0.597   0.598   0.599   0.597   0.632   0.647   0.628   0.614   0.593   0.614   0.642   0.631   0.641   0.626   0.595   0.626   0.614   0.647
    71.35    0.639   0.654   0.661   0.657   0.659   0.679   0.659   0.639   0.642   0.624   0.612   0.637   0.632   0.652   0.619   0.628   0.623   0.603   0.601   0.606   0.598   0.612   0.596   0.591   0.630   0.665   0.666   0.639   0.633   0.601   0.586   0.608   0.624
    67.29    0.623   0.645   0.650   0.636   0.635   0.633   0.625   0.619   0.605   0.621   0.619   0.635   0.622   0.652   0.620   0.592   0.594   0.584   0.574   0.600   0.589   0.585   0.578   0.613   0.631   0.649   0.663   0.659   0.642   0.633   0.604   0.630   0.653
    63.23    0.612   0.631   0.626   0.630   0.625   0.590   0.597   0.610   0.618   0.628   0.634   0.641   0.628   0.630   0.627   0.623   0.625   0.592   0.577   0.559   0.578   0.564   0.565   0.577   0.628   0.636   0.634   0.657   0.667   0.648   0.636   0.638   0.634
    59.16    0.612   0.628   0.645   0.656   0.605   0.570   0.599   0.631   0.657   0.689   0.661   0.699   0.655   0.645   0.620   0.611   0.605   0.598   0.576   0.568   0.577   0.581   0.578   0.632   0.609   0.651   0.658   0.653   0.638   0.660   0.640   0.644   0.666
    55.10    0.612   0.599   0.609   0.640   0.618   0.630   0.625   0.644   0.638   0.677   0.673   0.677   0.684   0.664   0.621   0.617   0.610   0.574   0.573   0.581   0.601   0.567   0.581   0.586   0.612   0.648   0.641   0.660   0.660   0.666   0.636   0.642   0.674
    51.04    0.611   0.574   0.591   0.610   0.623   0.616   0.635   0.655   0.673   0.675   0.672   0.669   0.684   0.636   0.608   0.590   0.599   0.588   0.606   0.601   0.598   0.611   0.607   0.602   0.620   0.630   0.638   0.639   0.653   0.633   0.634   0.654   0.653
    46.98    0.632   0.596   0.598   0.612   0.646   0.626   0.634   0.646   0.655   0.665   0.659   0.678   0.624   0.608   0.620   0.581   0.596   0.587   0.601   0.577   0.607   0.619   0.638   0.647   0.635   0.637   0.617   0.635   0.607   0.615   0.622   0.649   0.631
    42.91    0.636   0.607   0.640   0.631   0.665   0.622   0.629   0.648   0.648   0.636   0.674   0.650   0.639   0.629   0.617   0.590   0.575   0.586   0.584   0.584   0.619   0.588   0.611   0.649   0.654   0.649   0.651   0.619   0.641   0.630   0.622   0.636   0.651
    38.85    0.625   0.634   0.650   0.671   0.652   0.614   0.630   0.635   0.608   0.636   0.637   0.650   0.637   0.639   0.620   0.605   0.596   0.582   0.590   0.591   0.595   0.608   0.619   0.637   0.660   0.662   0.676   0.656   0.628   0.617   0.609   0.609   0.628
    34.79    0.636   0.642   0.655   0.656   0.639   0.623   0.620   0.622   0.614   0.632   0.633   0.637   0.651   0.639   0.646   0.621   0.598   0.585   0.596   0.578   0.609   0.614   0.609   0.645   0.627   0.649   0.653   0.662   0.656   0.638   0.629   0.628   0.615
    30.73    0.641   0.635   0.647   0.646   0.632   0.619   0.633   0.642   0.637   0.643   0.645   0.656   0.659   0.673   0.644   0.633   0.619   0.602   0.609   0.602   0.631   0.642   0.628   0.619   0.636   0.642   0.675   0.674   0.651   0.657   0.657   0.657   0.626
    26.66    0.652   0.628   0.643   0.652   0.640   0.652   0.624   0.627   0.628   0.634   0.628   0.644   0.655   0.682   0.678   0.665   0.634   0.632   0.645   0.645   0.622   0.619   0.622   0.609   0.604   0.629   0.635   0.631   0.646   0.648   0.657   0.630   0.640
    22.60    0.653   0.640   0.645   0.655   0.642   0.640   0.648   0.657   0.636   0.617   0.627   0.634   0.648   0.680   0.659   0.650   0.629   0.625   0.645   0.661   0.642   0.620   0.622   0.625   0.612   0.616   0.626   0.629   0.622   0.621   0.641   0.644   0.636

   Mean standard deviation across all grid points:
      u component:    1.015 m/s
      v component:    0.859 m/s
      w component:    0.644 m/s


U-component (X) statistics from the hub grid point:

   Mean =  10.0000 m/s
   TI   =  10.8557 %

Nyquist frequency of turbulent wind field =        10.000 Hz


Processing complete.  401.56 CPU seconds used.
