
This summary file was generated by TurbSim (v1.06.00, 21-Sep-2012) on 19-Oct-2020 at 12:06:27.


Runtime Options:

  65432154  Random seed #1
    RANLUX  Type of random number generator
         F  Output binary HH turbulence parameters?
         F  Output formatted turbulence parameters?
         F  Output AeroDyn HH files?
         T  Output AeroDyn FF files?
         F  Output BLADED FF files?
         T  Output tower data?
         F  Output formatted FF files?
         F  Output coherent turbulence time step file?
         T  Clockwise rotation when looking downwind?
 0 -  NONE  IEC turbulence models scaled to exact specified standard deviation


Turbine/Model Specifications:

        33  Vertical grid-point matrix dimension
        33  Horizontal grid-point matrix dimension
     0.050  Time step [seconds]
  1010.000  Analysis time [seconds]
  1010.000  Usable output time [seconds]
    87.600  Hub height [m]
   130.000  Grid height [m]
   130.000  Grid width [m]
     0.000  Vertical flow angle [degrees]
     0.000  Horizontal flow angle [degrees]


Meteorological Boundary Conditions:

    SMOOTH  RISO Smooth Terrain spectral model
       N/A  IEC standard
       N/A  IEC turbulence characteristic
       N/A  IEC turbulence type
       N/A  IEC Extreme Turbulence Model (ETM) "c" parameter [m/s]
       IEC  Wind profile type
    87.600  Reference height [m]
    16.000  Reference wind speed [m/s]
       N/A  Jet height [m]
     0.143  Power law exponent
     0.010  Surface roughness length [m]


Non-IEC Meteorological Boundary Conditions:

    45.000  Site latitude [degrees]
     0.050  Gradient Richardson number
     0.680  Friction or shear velocity [m/s]
       N/A  Mixing layer depth [m]
    -0.462  Mean hub u'w' Reynolds stress
       N/A  Mean hub u'v' Reynolds stress
       N/A  Mean hub v'w' Reynolds stress
(   16.000,  0.00    )  u-component coherence parameters
(   12.000,  0.00    )  v-component coherence parameters
(   12.000,  0.00    )  w-component coherence parameters
     0.000  Coherence exponent


You have requested that the following file(s) be generated:

   unsteady_tmp_16.bts (AeroDyn/TurbSim full-field wind file)


Turbulence Simulation Scaling Parameter Summary:

   Turbulence model used                            =  RISO Smooth Terrain
   Gradient Richardson number                       =    0.050
   Monin-Obukhov (M-O) z/L parameter                =    0.067
   Monin-Obukhov (M-O) length scale                 = 1314.000 m
   Mean wind speed at hub height                    =   16.000 m/s

   Wind profile type                                =  Power law on rotor disk, logarithmic elsewhere
   Power law exponent                               =    0.143
   Mean shear across rotor disk                     =    0.029 (m/s)/m
   Assumed rotor diameter                           =  130.000 m
   Surface roughness length                         =    0.010 m

   Number of time steps in the FFT                  =    20384
   Number of time steps output                      =    20363


Mean Flow Angles:

   Vertical   =   0.0 degrees
   Horizontal =   0.0 degrees

Mean Wind Speed Profile:

   Height    Wind Speed   Horizontal Angle  U-comp (X)   V-comp (Y)   W-comp (Z)
     (m)        (m/s)         (degrees)       (m/s)        (m/s)        (m/s)   
   ------    ----------   ----------------  ----------   ----------   ----------
    152.6       16.98            0.00         16.98         0.00         0.00
    148.5       17.25            0.00         17.25         0.00         0.00
    144.5       17.19            0.00         17.19         0.00         0.00
    140.4       17.12            0.00         17.12         0.00         0.00
    136.4       17.05            0.00         17.05         0.00         0.00
    132.3       16.97            0.00         16.97         0.00         0.00
    128.2       16.90            0.00         16.90         0.00         0.00
    124.2       16.82            0.00         16.82         0.00         0.00
    120.1       16.74            0.00         16.74         0.00         0.00
    116.0       16.66            0.00         16.66         0.00         0.00
    112.0       16.57            0.00         16.57         0.00         0.00
    107.9       16.48            0.00         16.48         0.00         0.00
    103.9       16.39            0.00         16.39         0.00         0.00
     99.8       16.30            0.00         16.30         0.00         0.00
     95.7       16.20            0.00         16.20         0.00         0.00
     91.7       16.10            0.00         16.10         0.00         0.00
     87.6       16.00            0.00         16.00         0.00         0.00
     83.5       15.89            0.00         15.89         0.00         0.00
     79.5       15.78            0.00         15.78         0.00         0.00
     75.4       15.66            0.00         15.66         0.00         0.00
     71.4       15.54            0.00         15.54         0.00         0.00
     67.3       15.41            0.00         15.41         0.00         0.00
     63.2       15.27            0.00         15.27         0.00         0.00
     59.2       15.13            0.00         15.13         0.00         0.00
     55.1       14.97            0.00         14.97         0.00         0.00
     51.0       14.81            0.00         14.81         0.00         0.00
     47.0       14.64            0.00         14.64         0.00         0.00
     42.9       14.45            0.00         14.45         0.00         0.00
     38.9       14.24            0.00         14.24         0.00         0.00
     34.8       14.02            0.00         14.02         0.00         0.00
     30.7       13.77            0.00         13.77         0.00         0.00
     26.7       13.50            0.00         13.50         0.00         0.00
     22.6       13.18            0.00         13.18         0.00         0.00
     18.5       13.26            0.00         13.26         0.00         0.00
     14.5       12.83            0.00         12.83         0.00         0.00
     10.4       12.25            0.00         12.25         0.00         0.00
      6.4       11.37            0.00         11.37         0.00         0.00
      2.3        9.58            0.00          9.58         0.00         0.00


Harvested Random Seeds after Generation of the Random Numbers:

    310807588 K1
            0 K2


Scaling statistics from the hub grid point:

   Cross-Component  Scaling Factor
   ---------------  --------------
   u'w'               -0.13451E+00
   u'v'                0.00000E+00
   v'w'                0.00000E+00


Hub-Height Simulated Turbulence Statistical Summary:

   Type of Wind        Min (m/s)   Mean (m/s)    Max (m/s)  Sigma (m/s)       TI (%)
   ----------------    ---------   ----------    ---------  -----------       ------
   Longitudinal (u)        10.08        16.00        21.93        1.904       11.897
   Lateral (v)             -4.64         0.00         4.45        1.342        8.391
   Vertical (w)            -3.64         0.00         3.72        1.080        6.752
   U component             10.08        16.00        21.93        1.904       11.897
   V component             -4.64         0.00         4.45        1.342        8.391
   W component             -3.64         0.00         3.72        1.080        6.752
   Horizontal (U&V)        10.24        16.06        22.12        1.903       11.851
   Total                   10.24        16.09        22.13        1.898       11.791

                       Min Reynolds     Mean Reynolds    Max Reynolds    Correlation
   Product             Stress (m/s)^2   Stress (m/s)^2   Stress (m/s)^2  Coefficient
   ----------------    --------------   --------------   --------------  -----------
   u'w'                    -15.894            -0.462             9.598        -0.225
   u'v'                    -16.977             0.077            15.035         0.030
   v'w'                    -10.658             0.009            10.437         0.006


   Friction Velocity (Ustar)  =      0.680 m/s
   Maximum Instantaneous TKE  =     21.877 (m/s)^2
   Maximum Instantaneous CTKE =     10.013 (m/s)^2


Grid Point Variance Summary:

   Y-coord  -65.00  -60.94  -56.88  -52.81  -48.75  -44.69  -40.62  -36.56  -32.50  -28.44  -24.38  -20.31  -16.25  -12.19   -8.12   -4.06    0.00    4.06    8.12   12.19   16.25   20.31   24.38   28.44   32.50   36.56   40.62   44.69   48.75   52.81   56.88   60.94   65.00

   Height   Standard deviation at grid points for the u component:
   152.60    1.857   1.822   1.743   1.782   1.750   1.759   1.728   1.737   1.741   1.742   1.682   1.690   1.698   1.690   1.750   1.749   1.774   1.796   1.789   1.813   1.744   1.785   1.760   1.756   1.777   1.774   1.794   1.770   1.820   1.801   1.781   1.807   1.797
   148.54    1.879   1.882   1.756   1.783   1.747   1.754   1.808   1.760   1.694   1.776   1.722   1.716   1.777   1.748   1.695   1.804   1.854   1.783   1.751   1.758   1.779   1.788   1.808   1.774   1.793   1.813   1.786   1.821   1.843   1.803   1.769   1.809   1.853
   144.48    1.816   1.781   1.773   1.840   1.797   1.800   1.813   1.811   1.776   1.740   1.778   1.822   1.800   1.815   1.799   1.847   1.859   1.749   1.734   1.755   1.775   1.843   1.822   1.864   1.835   1.806   1.845   1.824   1.803   1.819   1.834   1.940   1.930
   140.41    1.813   1.840   1.802   1.793   1.824   1.799   1.805   1.753   1.758   1.799   1.769   1.779   1.816   1.849   1.827   1.844   1.815   1.784   1.874   1.860   1.787   1.842   1.811   1.807   1.818   1.827   1.877   1.866   1.799   1.804   1.851   1.921   1.956
   136.35    1.813   1.798   1.818   1.768   1.779   1.800   1.747   1.698   1.751   1.769   1.787   1.726   1.800   1.816   1.816   1.828   1.795   1.822   1.902   1.845   1.803   1.826   1.881   1.860   1.856   1.911   1.856   1.859   1.800   1.762   1.797   1.857   1.920
   132.29    1.871   1.832   1.847   1.761   1.780   1.730   1.788   1.728   1.726   1.760   1.821   1.810   1.841   1.817   1.848   1.872   1.857   1.853   1.852   1.843   1.823   1.823   1.853   1.854   1.844   1.870   1.831   1.831   1.787   1.767   1.772   1.845   1.855
   128.23    1.830   1.809   1.778   1.792   1.764   1.770   1.739   1.711   1.745   1.810   1.800   1.856   1.808   1.817   1.844   1.873   1.900   1.855   1.836   1.868   1.873   1.846   1.819   1.830   1.792   1.856   1.868   1.818   1.794   1.790   1.815   1.818   1.924
   124.16    1.867   1.826   1.802   1.767   1.765   1.738   1.682   1.737   1.753   1.793   1.856   1.811   1.822   1.809   1.872   1.834   1.872   1.882   1.892   1.921   1.862   1.851   1.876   1.863   1.804   1.774   1.824   1.861   1.841   1.900   1.876   1.867   1.862
   120.10    1.871   1.827   1.833   1.786   1.825   1.753   1.729   1.736   1.783   1.787   1.829   1.861   1.857   1.842   1.834   1.873   1.928   1.904   1.897   1.919   1.908   1.896   1.872   1.839   1.801   1.834   1.859   1.897   1.882   1.914   1.909   1.886   1.928
   116.04    1.808   1.862   1.873   1.830   1.791   1.777   1.805   1.831   1.800   1.834   1.845   1.893   1.878   1.926   1.911   1.925   1.973   1.923   1.866   1.842   1.896   1.847   1.865   1.829   1.822   1.916   1.901   1.874   1.892   1.889   1.938   1.916   1.940
   111.98    1.824   1.806   1.810   1.839   1.849   1.866   1.805   1.824   1.871   1.884   1.914   1.940   1.898   1.990   1.928   1.923   1.934   1.902   1.840   1.863   1.900   1.911   1.855   1.808   1.833   1.873   1.859   1.859   1.830   1.855   1.872   1.907   1.943
   107.91    1.857   1.833   1.808   1.812   1.862   1.880   1.921   1.835   1.903   1.958   1.937   1.908   1.857   1.930   1.999   1.962   1.906   1.889   1.887   1.893   1.953   1.939   1.902   1.794   1.803   1.755   1.885   1.866   1.844   1.823   1.820   1.845   1.877
   103.85    1.855   1.841   1.867   1.876   1.851   1.872   1.886   1.859   1.935   1.909   1.928   1.927   1.963   1.993   1.990   1.950   1.951   1.956   1.923   1.922   1.870   1.863   1.855   1.826   1.812   1.799   1.860   1.905   1.849   1.863   1.814   1.799   1.846
    99.79    1.809   1.843   1.843   1.855   1.847   1.845   1.902   1.914   1.955   1.904   1.926   1.948   1.996   1.948   1.926   1.892   1.898   1.893   1.961   1.925   1.861   1.837   1.847   1.827   1.860   1.836   1.852   1.862   1.870   1.840   1.823   1.816   1.844
    95.73    1.815   1.784   1.824   1.807   1.848   1.904   1.881   1.899   1.969   1.975   1.928   1.985   2.035   1.896   1.848   1.862   1.933   1.841   1.885   1.863   1.856   1.876   1.862   1.860   1.812   1.803   1.811   1.851   1.832   1.851   1.807   1.785   1.835
    91.66    1.770   1.795   1.798   1.811   1.882   1.977   1.957   2.004   1.993   2.032   1.981   2.038   1.964   1.950   1.888   1.886   1.890   1.880   1.886   1.823   1.839   1.822   1.822   1.823   1.850   1.835   1.883   1.849   1.878   1.831   1.843   1.819   1.821
    87.60    1.787   1.787   1.770   1.856   1.915   1.945   1.956   2.012   2.004   1.994   1.989   2.072   1.962   1.882   1.930   1.931   1.904   1.945   1.828   1.812   1.818   1.761   1.780   1.795   1.760   1.796   1.857   1.844   1.875   1.884   1.888   1.912   1.890
    83.54    1.820   1.838   1.823   1.830   1.844   1.940   1.985   1.964   1.949   1.956   2.007   2.038   1.999   1.948   1.927   1.906   1.997   1.910   1.817   1.789   1.740   1.711   1.772   1.735   1.694   1.770   1.821   1.862   1.842   1.842   1.898   1.901   1.821
    79.48    1.853   1.855   1.840   1.826   1.920   1.931   1.946   1.976   1.917   1.985   1.967   1.974   2.002   1.989   1.909   1.909   1.888   1.902   1.843   1.795   1.727   1.770   1.781   1.739   1.733   1.790   1.789   1.788   1.844   1.802   1.881   1.832   1.839
    75.41    1.825   1.811   1.866   1.873   1.823   1.840   1.937   1.932   1.961   2.001   2.005   1.937   1.919   1.904   1.946   1.897   1.854   1.803   1.799   1.752   1.806   1.776   1.759   1.775   1.789   1.767   1.777   1.697   1.795   1.792   1.829   1.839   1.866
    71.35    1.838   1.814   1.864   1.852   1.826   1.831   1.901   1.935   1.979   2.021   2.022   2.048   1.948   1.912   1.915   1.840   1.789   1.767   1.799   1.779   1.776   1.746   1.730   1.713   1.735   1.725   1.685   1.695   1.739   1.777   1.807   1.806   1.812
    67.29    1.788   1.846   1.858   1.904   1.859   1.852   1.875   1.921   2.014   1.998   2.003   1.980   1.954   1.956   1.939   1.894   1.793   1.746   1.771   1.763   1.734   1.703   1.687   1.774   1.754   1.706   1.778   1.769   1.761   1.702   1.727   1.747   1.714
    63.23    1.776   1.809   1.855   1.856   1.903   1.866   1.869   1.910   1.996   1.996   1.984   1.922   1.958   1.994   1.975   1.990   1.870   1.786   1.720   1.710   1.738   1.683   1.697   1.729   1.716   1.737   1.783   1.761   1.759   1.752   1.776   1.765   1.788
    59.16    1.805   1.863   1.836   1.876   1.936   1.935   1.892   1.915   1.957   1.935   1.948   1.989   1.955   1.916   1.881   1.959   1.859   1.824   1.768   1.753   1.702   1.711   1.698   1.671   1.711   1.791   1.810   1.740   1.692   1.724   1.742   1.764   1.838
    55.10    1.825   1.903   1.899   1.889   1.969   1.941   1.921   1.957   1.934   1.977   1.880   1.914   1.931   1.859   1.847   1.870   1.905   1.868   1.805   1.792   1.761   1.731   1.714   1.709   1.661   1.710   1.774   1.721   1.689   1.734   1.796   1.824   1.779
    51.04    1.865   1.884   1.906   1.964   1.993   1.926   1.910   1.980   1.984   1.989   1.942   1.925   1.920   1.890   1.863   1.833   1.893   1.854   1.829   1.816   1.747   1.747   1.732   1.751   1.708   1.678   1.756   1.702   1.725   1.760   1.677   1.741   1.740
    46.98    1.843   1.862   1.786   1.906   1.907   1.921   1.926   1.958   1.932   1.916   1.981   1.909   1.871   1.908   1.822   1.744   1.835   1.780   1.839   1.813   1.798   1.714   1.662   1.685   1.688   1.732   1.761   1.757   1.760   1.757   1.717   1.772   1.696
    42.91    1.844   1.836   1.836   1.866   1.910   1.958   1.926   1.954   1.989   1.961   1.932   1.863   1.844   1.858   1.810   1.821   1.840   1.836   1.837   1.828   1.836   1.759   1.723   1.782   1.744   1.728   1.758   1.798   1.771   1.753   1.699   1.790   1.716
    38.85    1.791   1.851   1.875   1.839   1.890   1.923   1.874   1.854   1.928   1.887   1.833   1.808   1.804   1.843   1.844   1.845   1.872   1.874   1.831   1.874   1.811   1.789   1.785   1.844   1.813   1.776   1.839   1.814   1.790   1.759   1.775   1.826   1.767
    34.79    1.798   1.839   1.819   1.827   1.865   1.866   1.843   1.849   1.835   1.823   1.808   1.765   1.771   1.729   1.763   1.857   1.875   1.837   1.856   1.827   1.812   1.829   1.855   1.836   1.900   1.822   1.811   1.774   1.741   1.756   1.741   1.816   1.860
    30.73    1.767   1.780   1.774   1.779   1.824   1.814   1.808   1.824   1.797   1.784   1.744   1.686   1.750   1.783   1.796   1.829   1.900   1.817   1.829   1.802   1.736   1.814   1.817   1.824   1.865   1.827   1.811   1.744   1.715   1.724   1.747   1.825   1.767
    26.66    1.764   1.760   1.714   1.776   1.742   1.771   1.760   1.729   1.797   1.739   1.726   1.662   1.700   1.725   1.793   1.797   1.827   1.802   1.781   1.787   1.809   1.795   1.837   1.835   1.773   1.758   1.762   1.739   1.768   1.809   1.801   1.882   1.869
    22.60    1.763   1.716   1.737   1.786   1.772   1.755   1.738   1.699   1.776   1.757   1.706   1.679   1.704   1.780   1.789   1.812   1.843   1.881   1.773   1.767   1.798   1.809   1.798   1.752   1.782   1.740   1.771   1.738   1.739   1.813   1.850   1.901   1.933

   Height   Standard deviation at grid points for the v component:
   152.60    1.313   1.341   1.405   1.390   1.399   1.463   1.459   1.405   1.435   1.426   1.461   1.472   1.452   1.431   1.438   1.455   1.454   1.433   1.449   1.482   1.452   1.470   1.456   1.498   1.535   1.479   1.478   1.467   1.484   1.455   1.476   1.456   1.488
   148.54    1.320   1.377   1.392   1.382   1.416   1.403   1.437   1.399   1.424   1.433   1.429   1.392   1.418   1.409   1.431   1.455   1.427   1.423   1.443   1.442   1.425   1.451   1.513   1.496   1.481   1.481   1.486   1.450   1.486   1.484   1.498   1.463   1.453
   144.48    1.342   1.374   1.403   1.415   1.433   1.414   1.407   1.417   1.389   1.458   1.428   1.382   1.388   1.361   1.447   1.436   1.433   1.422   1.429   1.411   1.456   1.478   1.481   1.502   1.503   1.484   1.470   1.448   1.490   1.494   1.497   1.480   1.499
   140.41    1.353   1.367   1.407   1.412   1.413   1.423   1.406   1.425   1.403   1.460   1.442   1.403   1.416   1.415   1.436   1.427   1.422   1.435   1.407   1.396   1.406   1.431   1.466   1.458   1.487   1.470   1.446   1.475   1.504   1.480   1.501   1.483   1.459
   136.35    1.375   1.357   1.396   1.394   1.399   1.393   1.426   1.436   1.427   1.412   1.426   1.422   1.411   1.431   1.407   1.398   1.417   1.453   1.420   1.435   1.414   1.447   1.478   1.485   1.464   1.447   1.419   1.446   1.485   1.514   1.435   1.425   1.398
   132.29    1.359   1.384   1.376   1.355   1.373   1.384   1.386   1.423   1.416   1.414   1.411   1.433   1.431   1.416   1.414   1.432   1.432   1.466   1.460   1.445   1.457   1.468   1.500   1.472   1.476   1.418   1.414   1.463   1.498   1.470   1.450   1.389   1.375
   128.23    1.398   1.390   1.441   1.358   1.362   1.404   1.456   1.437   1.445   1.431   1.413   1.381   1.364   1.376   1.368   1.437   1.443   1.418   1.436   1.422   1.426   1.423   1.449   1.473   1.491   1.432   1.436   1.425   1.438   1.449   1.416   1.341   1.359
   124.16    1.385   1.385   1.392   1.413   1.410   1.453   1.474   1.473   1.461   1.428   1.437   1.375   1.356   1.344   1.354   1.409   1.387   1.407   1.433   1.450   1.441   1.440   1.431   1.429   1.472   1.446   1.431   1.383   1.421   1.420   1.402   1.393   1.338
   120.10    1.409   1.428   1.438   1.406   1.404   1.406   1.457   1.455   1.412   1.396   1.429   1.384   1.371   1.362   1.382   1.405   1.400   1.439   1.417   1.435   1.416   1.437   1.451   1.425   1.455   1.453   1.444   1.378   1.428   1.419   1.382   1.394   1.336
   116.04    1.426   1.443   1.434   1.380   1.382   1.384   1.413   1.425   1.391   1.413   1.443   1.414   1.371   1.389   1.376   1.371   1.403   1.435   1.439   1.458   1.417   1.397   1.408   1.425   1.436   1.412   1.442   1.421   1.407   1.424   1.425   1.421   1.367
   111.98    1.422   1.412   1.414   1.387   1.371   1.381   1.417   1.395   1.410   1.413   1.452   1.454   1.410   1.406   1.396   1.410   1.401   1.421   1.421   1.446   1.430   1.398   1.421   1.428   1.433   1.422   1.457   1.421   1.440   1.421   1.394   1.396   1.346
   107.91    1.402   1.404   1.350   1.366   1.389   1.373   1.379   1.395   1.359   1.396   1.409   1.390   1.382   1.418   1.390   1.408   1.357   1.398   1.439   1.460   1.399   1.399   1.434   1.446   1.447   1.416   1.466   1.423   1.423   1.421   1.403   1.385   1.390
   103.85    1.363   1.331   1.341   1.338   1.351   1.366   1.374   1.372   1.393   1.373   1.374   1.402   1.385   1.421   1.407   1.424   1.353   1.414   1.416   1.445   1.409   1.417   1.400   1.432   1.423   1.447   1.447   1.416   1.390   1.374   1.382   1.376   1.413
    99.79    1.348   1.318   1.317   1.352   1.360   1.367   1.386   1.387   1.387   1.364   1.340   1.386   1.379   1.401   1.397   1.410   1.390   1.426   1.401   1.409   1.436   1.373   1.391   1.399   1.416   1.438   1.437   1.414   1.375   1.386   1.390   1.366   1.428
    95.73    1.355   1.315   1.302   1.334   1.376   1.401   1.362   1.348   1.387   1.357   1.384   1.371   1.358   1.384   1.431   1.380   1.396   1.405   1.418   1.435   1.399   1.420   1.426   1.412   1.383   1.394   1.396   1.411   1.361   1.394   1.376   1.386   1.402
    91.66    1.331   1.302   1.279   1.335   1.370   1.378   1.339   1.347   1.331   1.368   1.368   1.331   1.349   1.408   1.429   1.414   1.383   1.365   1.388   1.419   1.404   1.407   1.425   1.390   1.382   1.384   1.367   1.368   1.359   1.377   1.351   1.392   1.434
    87.60    1.364   1.346   1.334   1.325   1.365   1.376   1.350   1.322   1.312   1.330   1.353   1.345   1.390   1.363   1.369   1.354   1.342   1.318   1.382   1.400   1.446   1.446   1.410   1.422   1.387   1.359   1.333   1.329   1.323   1.336   1.375   1.382   1.386
    83.54    1.357   1.411   1.359   1.325   1.335   1.377   1.314   1.329   1.311   1.308   1.339   1.375   1.387   1.359   1.341   1.334   1.312   1.317   1.334   1.362   1.395   1.417   1.430   1.420   1.395   1.363   1.353   1.345   1.350   1.323   1.338   1.328   1.339
    79.48    1.357   1.392   1.335   1.329   1.283   1.348   1.316   1.340   1.315   1.330   1.346   1.344   1.323   1.303   1.299   1.345   1.308   1.312   1.348   1.367   1.389   1.433   1.428   1.409   1.373   1.341   1.322   1.351   1.342   1.354   1.333   1.334   1.353
    75.41    1.349   1.381   1.398   1.343   1.312   1.365   1.317   1.264   1.296   1.313   1.349   1.320   1.332   1.310   1.294   1.305   1.339   1.319   1.332   1.380   1.406   1.429   1.438   1.402   1.379   1.355   1.331   1.334   1.341   1.324   1.328   1.363   1.356
    71.35    1.370   1.390   1.367   1.370   1.354   1.345   1.320   1.290   1.256   1.291   1.332   1.274   1.280   1.289   1.261   1.330   1.349   1.341   1.354   1.405   1.429   1.406   1.431   1.443   1.411   1.378   1.358   1.336   1.302   1.294   1.285   1.346   1.328
    67.29    1.394   1.395   1.366   1.351   1.357   1.336   1.318   1.295   1.271   1.257   1.325   1.307   1.299   1.291   1.297   1.310   1.319   1.361   1.334   1.360   1.378   1.358   1.382   1.412   1.398   1.366   1.345   1.328   1.320   1.314   1.324   1.320   1.332
    63.23    1.357   1.406   1.383   1.398   1.385   1.338   1.318   1.340   1.304   1.313   1.340   1.342   1.329   1.330   1.313   1.318   1.328   1.307   1.299   1.304   1.332   1.327   1.362   1.386   1.397   1.378   1.349   1.333   1.335   1.303   1.308   1.321   1.294
    59.16    1.366   1.373   1.392   1.394   1.383   1.334   1.354   1.338   1.376   1.367   1.343   1.352   1.360   1.323   1.329   1.319   1.317   1.315   1.330   1.314   1.335   1.390   1.342   1.334   1.341   1.305   1.331   1.340   1.318   1.298   1.316   1.310   1.297
    55.10    1.378   1.369   1.372   1.383   1.380   1.356   1.325   1.375   1.385   1.405   1.356   1.376   1.380   1.350   1.324   1.307   1.294   1.310   1.323   1.300   1.337   1.360   1.369   1.326   1.351   1.314   1.303   1.335   1.317   1.291   1.296   1.295   1.301
    51.04    1.330   1.353   1.331   1.337   1.345   1.357   1.351   1.357   1.387   1.365   1.391   1.405   1.402   1.343   1.341   1.331   1.330   1.342   1.296   1.256   1.307   1.364   1.365   1.333   1.347   1.341   1.312   1.316   1.288   1.256   1.280   1.277   1.289
    46.98    1.323   1.322   1.336   1.344   1.308   1.343   1.353   1.388   1.371   1.409   1.373   1.419   1.376   1.338   1.355   1.334   1.363   1.334   1.307   1.301   1.339   1.353   1.334   1.328   1.342   1.333   1.353   1.300   1.298   1.283   1.287   1.303   1.305
    42.91    1.314   1.330   1.317   1.317   1.327   1.341   1.354   1.383   1.386   1.394   1.419   1.413   1.376   1.325   1.372   1.347   1.353   1.378   1.334   1.341   1.305   1.346   1.379   1.379   1.360   1.359   1.325   1.318   1.286   1.300   1.334   1.296   1.313
    38.85    1.297   1.274   1.319   1.264   1.301   1.351   1.372   1.366   1.382   1.373   1.418   1.377   1.374   1.398   1.348   1.324   1.350   1.372   1.374   1.359   1.325   1.345   1.391   1.401   1.367   1.353   1.310   1.304   1.292   1.281   1.314   1.311   1.313
    34.79    1.283   1.280   1.311   1.316   1.347   1.344   1.349   1.364   1.366   1.418   1.385   1.376   1.372   1.381   1.417   1.355   1.366   1.395   1.364   1.371   1.328   1.337   1.341   1.382   1.361   1.311   1.306   1.290   1.286   1.334   1.299   1.345   1.307
    30.73    1.300   1.300   1.317   1.338   1.349   1.364   1.363   1.385   1.372   1.357   1.367   1.378   1.368   1.353   1.380   1.358   1.399   1.370   1.376   1.352   1.363   1.354   1.318   1.336   1.335   1.314   1.287   1.293   1.320   1.322   1.353   1.319   1.342
    26.66    1.300   1.331   1.296   1.315   1.348   1.335   1.351   1.374   1.387   1.344   1.345   1.363   1.371   1.379   1.359   1.343   1.369   1.346   1.357   1.320   1.311   1.349   1.339   1.364   1.318   1.294   1.317   1.345   1.341   1.350   1.354   1.348   1.339
    22.60    1.336   1.336   1.339   1.336   1.360   1.339   1.339   1.358   1.398   1.353   1.373   1.353   1.335   1.358   1.363   1.351   1.348   1.354   1.336   1.326   1.345   1.342   1.326   1.300   1.302   1.307   1.303   1.341   1.351   1.337   1.358   1.326   1.327

   Height   Standard deviation at grid points for the w component:
   152.60    1.081   1.070   1.083   1.090   1.074   1.095   1.080   1.055   1.062   1.065   1.062   1.056   1.064   1.078   1.057   1.064   1.076   1.060   1.068   1.058   1.063   1.043   1.075   1.057   1.056   1.046   1.051   1.050   1.052   1.055   1.029   1.028   1.043
   148.54    1.086   1.101   1.088   1.095   1.078   1.103   1.114   1.098   1.078   1.075   1.058   1.055   1.072   1.072   1.084   1.065   1.079   1.073   1.045   1.045   1.065   1.071   1.065   1.052   1.066   1.055   1.069   1.053   1.053   1.043   1.019   1.051   1.054
   144.48    1.067   1.090   1.092   1.105   1.104   1.116   1.077   1.097   1.056   1.062   1.084   1.065   1.092   1.092   1.057   1.054   1.046   1.062   1.061   1.066   1.057   1.060   1.038   1.047   1.050   1.068   1.044   1.043   1.043   1.038   1.019   1.062   1.057
   140.41    1.069   1.086   1.102   1.104   1.098   1.102   1.076   1.054   1.057   1.061   1.056   1.101   1.102   1.108   1.105   1.078   1.072   1.052   1.062   1.064   1.049   1.055   1.039   1.031   1.044   1.050   1.041   1.046   1.061   1.061   1.042   1.050   1.061
   136.35    1.033   1.058   1.089   1.082   1.083   1.107   1.074   1.051   1.043   1.044   1.044   1.086   1.072   1.072   1.097   1.110   1.075   1.053   1.055   1.062   1.055   1.047   1.045   1.045   1.043   1.053   1.033   1.043   1.057   1.064   1.037   1.042   1.034
   132.29    1.034   1.039   1.047   1.055   1.067   1.084   1.073   1.055   1.056   1.032   1.052   1.038   1.037   1.055   1.059   1.097   1.088   1.092   1.084   1.058   1.030   1.049   1.051   1.063   1.058   1.073   1.030   1.048   1.062   1.048   1.053   1.059   1.041
   128.23    1.046   1.034   1.026   1.027   1.039   1.054   1.064   1.060   1.062   1.066   1.024   1.023   1.046   1.031   1.100   1.065   1.100   1.104   1.082   1.068   1.051   1.059   1.053   1.071   1.090   1.088   1.062   1.029   1.031   1.045   1.060   1.066   1.053
   124.16    1.067   1.063   1.053   1.037   1.051   1.044   1.048   1.043   1.066   1.064   1.054   1.029   1.045   1.070   1.081   1.091   1.108   1.109   1.106   1.093   1.080   1.095   1.070   1.078   1.071   1.070   1.046   1.021   1.032   1.038   1.035   1.052   1.054
   120.10    1.058   1.053   1.075   1.063   1.062   1.035   1.055   1.076   1.092   1.059   1.051   1.034   1.094   1.102   1.107   1.121   1.124   1.138   1.116   1.109   1.095   1.108   1.105   1.086   1.053   1.054   1.053   1.031   1.031   1.043   1.047   1.046   1.051
   116.04    1.051   1.054   1.069   1.079   1.051   1.033   1.038   1.076   1.088   1.076   1.065   1.070   1.072   1.098   1.115   1.102   1.116   1.124   1.139   1.118   1.085   1.095   1.093   1.053   1.044   1.034   1.047   1.035   1.023   1.029   1.030   1.046   1.083
   111.98    1.025   1.025   1.064   1.050   1.045   1.040   1.060   1.066   1.097   1.078   1.087   1.088   1.089   1.106   1.108   1.090   1.093   1.105   1.114   1.091   1.112   1.090   1.061   1.042   1.035   1.041   1.032   1.047   1.018   1.029   1.053   1.032   1.066
   107.91    1.017   1.015   1.038   1.037   1.048   1.057   1.068   1.061   1.092   1.096   1.082   1.107   1.107   1.098   1.102   1.074   1.072   1.071   1.062   1.084   1.104   1.093   1.096   1.068   1.052   1.036   1.044   1.043   1.024   1.038   1.044   1.057   1.069
   103.85    1.047   1.011   1.032   1.051   1.061   1.042   1.065   1.070   1.072   1.096   1.109   1.123   1.079   1.099   1.095   1.077   1.078   1.090   1.082   1.069   1.061   1.105   1.090   1.048   1.035   1.055   1.045   1.050   1.033   1.047   1.079   1.077   1.109
    99.79    1.021   1.031   1.028   1.060   1.062   1.053   1.067   1.064   1.110   1.101   1.084   1.092   1.062   1.052   1.068   1.069   1.075   1.071   1.094   1.102   1.109   1.112   1.067   1.050   1.053   1.038   1.048   1.056   1.052   1.055   1.047   1.089   1.095
    95.73    1.032   1.055   1.049   1.061   1.056   1.070   1.067   1.075   1.079   1.066   1.072   1.096   1.060   1.058   1.073   1.086   1.064   1.086   1.069   1.090   1.076   1.099   1.071   1.085   1.056   1.045   1.029   1.053   1.054   1.055   1.044   1.075   1.088
    91.66    1.034   1.032   1.049   1.060   1.078   1.079   1.079   1.085   1.076   1.055   1.046   1.051   1.060   1.066   1.069   1.094   1.082   1.080   1.083   1.100   1.088   1.084   1.058   1.042   1.042   1.022   1.033   1.055   1.068   1.061   1.062   1.068   1.068
    87.60    1.072   1.070   1.064   1.065   1.095   1.084   1.063   1.075   1.057   1.054   1.035   1.036   1.040   1.048   1.072   1.093   1.080   1.110   1.097   1.088   1.081   1.056   1.049   1.062   1.042   1.065   1.069   1.073   1.096   1.072   1.090   1.080   1.091
    83.54    1.074   1.088   1.081   1.079   1.086   1.109   1.097   1.069   1.078   1.059   1.038   1.052   1.075   1.080   1.089   1.070   1.088   1.082   1.096   1.098   1.098   1.069   1.044   1.044   1.043   1.042   1.045   1.077   1.084   1.084   1.094   1.084   1.077
    79.48    1.066   1.082   1.073   1.069   1.072   1.087   1.098   1.083   1.079   1.062   1.053   1.046   1.036   1.086   1.103   1.080   1.069   1.092   1.078   1.081   1.071   1.060   1.052   1.043   1.034   1.071   1.070   1.098   1.083   1.082   1.071   1.099   1.092
    75.41    1.053   1.067   1.078   1.080   1.077   1.093   1.087   1.082   1.063   1.048   1.047   1.041   1.054   1.076   1.095   1.092   1.080   1.084   1.080   1.044   1.054   1.066   1.041   1.041   1.029   1.057   1.084   1.103   1.083   1.083   1.070   1.102   1.102
    71.35    1.073   1.077   1.079   1.087   1.073   1.057   1.089   1.078   1.063   1.067   1.064   1.060   1.082   1.082   1.085   1.076   1.098   1.052   1.053   1.046   1.025   1.046   1.031   1.037   1.042   1.056   1.083   1.084   1.065   1.069   1.068   1.074   1.046
    67.29    1.070   1.054   1.062   1.052   1.064   1.049   1.049   1.046   1.079   1.088   1.094   1.095   1.095   1.081   1.090   1.068   1.091   1.059   1.049   1.035   1.012   1.044   1.051   1.054   1.044   1.044   1.072   1.073   1.052   1.058   1.057   1.055   1.073
    63.23    1.066   1.042   1.035   1.044   1.045   1.025   1.043   1.061   1.065   1.083   1.105   1.105   1.111   1.115   1.080   1.061   1.093   1.057   1.032   1.036   1.034   1.051   1.049   1.055   1.058   1.066   1.053   1.050   1.046   1.079   1.085   1.068   1.069
    59.16    1.039   1.017   1.027   1.053   1.062   1.039   1.066   1.091   1.087   1.089   1.103   1.118   1.099   1.115   1.098   1.095   1.063   1.039   1.019   1.026   1.026   1.023   1.050   1.061   1.059   1.068   1.093   1.103   1.087   1.077   1.085   1.083   1.094
    55.10    1.030   1.048   1.017   1.037   1.065   1.063   1.052   1.088   1.069   1.082   1.083   1.097   1.116   1.101   1.092   1.084   1.058   1.058   1.033   1.043   1.021   1.025   1.027   1.041   1.065   1.055   1.059   1.082   1.088   1.099   1.088   1.121   1.071
    51.04    1.049   1.039   1.057   1.047   1.062   1.070   1.060   1.054   1.053   1.082   1.088   1.096   1.123   1.100   1.081   1.079   1.065   1.021   1.014   1.014   1.005   1.012   1.049   1.043   1.055   1.067   1.067   1.046   1.084   1.091   1.075   1.073   1.043
    46.98    1.064   1.053   1.049   1.051   1.039   1.066   1.037   1.052   1.065   1.067   1.098   1.100   1.103   1.076   1.073   1.041   1.032   1.049   1.037   1.015   1.030   1.013   1.025   1.037   1.052   1.069   1.049   1.050   1.051   1.062   1.071   1.075   1.066
    42.91    1.050   1.068   1.060   1.069   1.055   1.066   1.081   1.061   1.057   1.075   1.089   1.072   1.070   1.073   1.051   1.051   1.035   1.048   1.031   1.037   1.049   1.038   1.048   1.030   1.050   1.054   1.053   1.070   1.063   1.073   1.064   1.065   1.057
    38.85    1.063   1.053   1.069   1.056   1.068   1.073   1.065   1.028   1.034   1.059   1.067   1.068   1.048   1.052   1.054   1.061   1.050   1.039   1.033   1.028   1.044   1.044   1.043   1.027   1.025   1.035   1.056   1.061   1.079   1.061   1.075   1.071   1.087
    34.79    1.058   1.077   1.077   1.065   1.055   1.033   1.052   1.031   1.036   1.053   1.075   1.046   1.040   1.047   1.049   1.058   1.036   1.027   1.024   1.036   1.034   1.028   1.051   1.028   1.041   1.048   1.044   1.058   1.056   1.052   1.057   1.065   1.109
    30.73    1.043   1.055   1.047   1.058   1.062   1.040   1.037   1.054   1.061   1.057   1.066   1.055   1.041   1.033   1.035   1.045   1.069   1.066   1.054   1.062   1.056   1.050   1.039   1.052   1.043   1.064   1.063   1.044   1.049   1.046   1.062   1.076   1.064
    26.66    1.048   1.051   1.037   1.062   1.048   1.055   1.060   1.030   1.045   1.059   1.049   1.053   1.057   1.033   1.022   1.034   1.042   1.050   1.057   1.053   1.041   1.042   1.028   1.021   1.043   1.046   1.041   1.053   1.034   1.053   1.040   1.040   1.055
    22.60    1.065   1.041   1.061   1.062   1.055   1.063   1.048   1.034   1.054   1.057   1.083   1.055   1.044   1.051   1.033   1.033   1.045   1.057   1.046   1.060   1.062   1.042   1.030   1.014   1.041   1.044   1.055   1.052   1.029   1.038   1.042   1.056   1.046

   Mean standard deviation across all grid points:
      u component:    1.835 m/s
      v component:    1.378 m/s
      w component:    1.063 m/s


U-component (X) statistics from the hub grid point:

   Mean =  16.0000 m/s
   TI   =  11.8971 %

Nyquist frequency of turbulent wind field =        10.000 Hz


Processing complete.  860.56 CPU seconds used.
