
This summary file was generated by TurbSim (v1.06.00, 21-Sep-2012) on 11-Sep-2020 at 11:05:38.


Runtime Options:

  65432154  Random seed #1
    RANLUX  Type of random number generator
         F  Output binary HH turbulence parameters?
         F  Output formatted turbulence parameters?
         F  Output AeroDyn HH files?
         T  Output AeroDyn FF files?
         F  Output BLADED FF files?
         T  Output tower data?
         F  Output formatted FF files?
         F  Output coherent turbulence time step file?
         T  Clockwise rotation when looking downwind?
 0 -  NONE  IEC turbulence models scaled to exact specified standard deviation


Turbine/Model Specifications:

        33  Vertical grid-point matrix dimension
        33  Horizontal grid-point matrix dimension
     0.050  Time step [seconds]
    70.000  Analysis time [seconds]
    70.000  Usable output time [seconds]
    87.600  Hub height [m]
   130.000  Grid height [m]
   130.000  Grid width [m]
     0.000  Vertical flow angle [degrees]
     0.000  Horizontal flow angle [degrees]


Meteorological Boundary Conditions:

    SMOOTH  RISO Smooth Terrain spectral model
       N/A  IEC standard
       N/A  IEC turbulence characteristic
       N/A  IEC turbulence type
       N/A  IEC Extreme Turbulence Model (ETM) "c" parameter [m/s]
       IEC  Wind profile type
    87.600  Reference height [m]
     8.000  Reference wind speed [m/s]
       N/A  Jet height [m]
     0.143  Power law exponent
     0.010  Surface roughness length [m]


Non-IEC Meteorological Boundary Conditions:

    45.000  Site latitude [degrees]
     0.050  Gradient Richardson number
     0.340  Friction or shear velocity [m/s]
       N/A  Mixing layer depth [m]
    -0.116  Mean hub u'w' Reynolds stress
       N/A  Mean hub u'v' Reynolds stress
       N/A  Mean hub v'w' Reynolds stress
(    8.000,  0.00    )  u-component coherence parameters
(    6.000,  0.00    )  v-component coherence parameters
(    6.000,  0.00    )  w-component coherence parameters
     0.000  Coherence exponent


You have requested that the following file(s) be generated:

   unsteady_tmp_8.bts (AeroDyn/TurbSim full-field wind file)


Turbulence Simulation Scaling Parameter Summary:

   Turbulence model used                            =  RISO Smooth Terrain
   Gradient Richardson number                       =    0.050
   Monin-Obukhov (M-O) z/L parameter                =    0.067
   Monin-Obukhov (M-O) length scale                 = 1314.000 m
   Mean wind speed at hub height                    =    8.000 m/s

   Wind profile type                                =  Power law on rotor disk, logarithmic elsewhere
   Power law exponent                               =    0.143
   Mean shear across rotor disk                     =    0.015 (m/s)/m
   Assumed rotor diameter                           =  130.000 m
   Surface roughness length                         =    0.010 m

   Number of time steps in the FFT                  =     1728
   Number of time steps output                      =     1725


Mean Flow Angles:

   Vertical   =   0.0 degrees
   Horizontal =   0.0 degrees

Mean Wind Speed Profile:

   Height    Wind Speed   Horizontal Angle  U-comp (X)   V-comp (Y)   W-comp (Z)
     (m)        (m/s)         (degrees)       (m/s)        (m/s)        (m/s)   
   ------    ----------   ----------------  ----------   ----------   ----------
    152.6        8.49            0.00          8.49         0.00         0.00
    148.5        8.63            0.00          8.63         0.00         0.00
    144.5        8.59            0.00          8.59         0.00         0.00
    140.4        8.56            0.00          8.56         0.00         0.00
    136.4        8.52            0.00          8.52         0.00         0.00
    132.3        8.49            0.00          8.49         0.00         0.00
    128.2        8.45            0.00          8.45         0.00         0.00
    124.2        8.41            0.00          8.41         0.00         0.00
    120.1        8.37            0.00          8.37         0.00         0.00
    116.0        8.33            0.00          8.33         0.00         0.00
    112.0        8.29            0.00          8.29         0.00         0.00
    107.9        8.24            0.00          8.24         0.00         0.00
    103.9        8.20            0.00          8.20         0.00         0.00
     99.8        8.15            0.00          8.15         0.00         0.00
     95.7        8.10            0.00          8.10         0.00         0.00
     91.7        8.05            0.00          8.05         0.00         0.00
     87.6        8.00            0.00          8.00         0.00         0.00
     83.5        7.95            0.00          7.95         0.00         0.00
     79.5        7.89            0.00          7.89         0.00         0.00
     75.4        7.83            0.00          7.83         0.00         0.00
     71.4        7.77            0.00          7.77         0.00         0.00
     67.3        7.70            0.00          7.70         0.00         0.00
     63.2        7.64            0.00          7.64         0.00         0.00
     59.2        7.56            0.00          7.56         0.00         0.00
     55.1        7.49            0.00          7.49         0.00         0.00
     51.0        7.41            0.00          7.41         0.00         0.00
     47.0        7.32            0.00          7.32         0.00         0.00
     42.9        7.22            0.00          7.22         0.00         0.00
     38.9        7.12            0.00          7.12         0.00         0.00
     34.8        7.01            0.00          7.01         0.00         0.00
     30.7        6.89            0.00          6.89         0.00         0.00
     26.7        6.75            0.00          6.75         0.00         0.00
     22.6        6.59            0.00          6.59         0.00         0.00
     18.5        6.63            0.00          6.63         0.00         0.00
     14.5        6.41            0.00          6.41         0.00         0.00
     10.4        6.12            0.00          6.12         0.00         0.00
      6.4        5.69            0.00          5.69         0.00         0.00
      2.3        4.79            0.00          4.79         0.00         0.00


Harvested Random Seeds after Generation of the Random Numbers:

     26347896 K1
            0 K2


Scaling statistics from the hub grid point:

   Cross-Component  Scaling Factor
   ---------------  --------------
   u'w'               -0.27216E+00
   u'v'                0.00000E+00
   v'w'                0.00000E+00


Hub-Height Simulated Turbulence Statistical Summary:

   Type of Wind        Min (m/s)   Mean (m/s)    Max (m/s)  Sigma (m/s)       TI (%)
   ----------------    ---------   ----------    ---------  -----------       ------
   Longitudinal (u)         6.63         8.00         9.94        0.642        8.030
   Lateral (v)             -1.85         0.00         2.18        0.674        8.430
   Vertical (w)            -1.63         0.00         1.28        0.500        6.251
   U component              6.63         8.00         9.94        0.642        8.030
   V component             -1.85         0.00         2.18        0.674        8.430
   W component             -1.63         0.00         1.28        0.500        6.251
   Horizontal (U&V)         6.67         8.03         9.97        0.629        7.828
   Total                    6.67         8.04         9.98        0.629        7.819

                       Min Reynolds     Mean Reynolds    Max Reynolds    Correlation
   Product             Stress (m/s)^2   Stress (m/s)^2   Stress (m/s)^2  Coefficient
   ----------------    --------------   --------------   --------------  -----------
   u'w'                     -1.788            -0.116             0.729        -0.360
   u'v'                     -1.344             0.099             1.891         0.228
   v'w'                     -1.364             0.102             1.894         0.301


   Friction Velocity (Ustar)  =      0.340 m/s
   Maximum Instantaneous TKE  =      2.636 (m/s)^2
   Maximum Instantaneous CTKE =      1.160 (m/s)^2


Grid Point Variance Summary:

   Y-coord  -65.00  -60.94  -56.88  -52.81  -48.75  -44.69  -40.62  -36.56  -32.50  -28.44  -24.38  -20.31  -16.25  -12.19   -8.12   -4.06    0.00    4.06    8.12   12.19   16.25   20.31   24.38   28.44   32.50   36.56   40.62   44.69   48.75   52.81   56.88   60.94   65.00

   Height   Standard deviation at grid points for the u component:
   152.60    0.446   0.463   0.422   0.405   0.303   0.310   0.348   0.413   0.437   0.399   0.393   0.441   0.504   0.522   0.545   0.513   0.680   0.747   0.852   0.741   0.798   0.687   0.666   0.669   0.619   0.733   0.797   0.828   0.681   0.665   0.652   0.610   0.596
   148.54    0.467   0.440   0.378   0.348   0.320   0.284   0.353   0.362   0.419   0.388   0.369   0.340   0.391   0.437   0.499   0.630   0.599   0.681   0.810   0.741   0.862   0.739   0.784   0.723   0.661   0.717   0.834   0.873   0.807   0.706   0.558   0.550   0.573
   144.48    0.419   0.471   0.437   0.432   0.446   0.286   0.328   0.399   0.381   0.422   0.390   0.352   0.324   0.358   0.504   0.601   0.642   0.619   0.711   0.801   0.821   0.805   0.793   0.651   0.675   0.748   0.840   0.832   0.795   0.667   0.719   0.598   0.545
   140.41    0.442   0.437   0.462   0.522   0.456   0.354   0.331   0.445   0.424   0.419   0.408   0.378   0.378   0.443   0.449   0.576   0.707   0.772   0.710   0.786   0.776   0.660   0.700   0.593   0.663   0.766   0.858   0.735   0.828   0.785   0.606   0.673   0.581
   136.35    0.426   0.382   0.553   0.568   0.487   0.436   0.362   0.426   0.511   0.444   0.486   0.419   0.444   0.459   0.520   0.615   0.660   0.769   0.766   0.790   0.746   0.631   0.596   0.629   0.633   0.707   0.765   0.712   0.757   0.714   0.610   0.587   0.581
   132.29    0.406   0.517   0.570   0.549   0.450   0.435   0.483   0.512   0.461   0.475   0.522   0.379   0.461   0.454   0.604   0.569   0.668   0.736   0.760   0.739   0.730   0.703   0.596   0.686   0.739   0.719   0.700   0.740   0.699   0.680   0.672   0.591   0.591
   128.23    0.403   0.532   0.483   0.477   0.504   0.527   0.457   0.427   0.429   0.423   0.483   0.390   0.500   0.572   0.526   0.618   0.694   0.736   0.887   0.885   0.882   0.759   0.653   0.673   0.655   0.736   0.803   0.735   0.687   0.706   0.598   0.626   0.553
   124.16    0.434   0.511   0.505   0.461   0.462   0.496   0.474   0.466   0.445   0.452   0.446   0.415   0.490   0.516   0.556   0.525   0.581   0.736   0.804   0.887   0.870   0.930   0.782   0.697   0.692   0.698   0.758   0.724   0.687   0.636   0.583   0.618   0.653
   120.10    0.380   0.449   0.469   0.402   0.448   0.470   0.413   0.356   0.393   0.343   0.376   0.429   0.427   0.466   0.526   0.544   0.656   0.739   0.778   0.850   0.899   0.797   0.752   0.786   0.773   0.680   0.657   0.719   0.657   0.707   0.602   0.585   0.707
   116.04    0.423   0.431   0.430   0.493   0.498   0.421   0.418   0.349   0.329   0.369   0.426   0.425   0.458   0.460   0.433   0.515   0.585   0.720   0.719   0.717   0.724   0.791   0.813   0.810   0.831   0.798   0.788   0.612   0.636   0.677   0.711   0.731   0.721
   111.98    0.526   0.530   0.529   0.584   0.553   0.496   0.478   0.426   0.378   0.378   0.386   0.411   0.443   0.426   0.475   0.462   0.523   0.660   0.673   0.674   0.654   0.632   0.695   0.731   0.732   0.755   0.655   0.646   0.632   0.627   0.690   0.692   0.622
   107.91    0.588   0.503   0.602   0.672   0.536   0.430   0.438   0.416   0.445   0.476   0.455   0.423   0.445   0.450   0.458   0.606   0.539   0.546   0.614   0.635   0.532   0.632   0.664   0.599   0.620   0.632   0.540   0.715   0.758   0.717   0.751   0.684   0.672
   103.85    0.664   0.639   0.610   0.628   0.565   0.500   0.445   0.478   0.473   0.550   0.551   0.444   0.476   0.442   0.531   0.619   0.548   0.540   0.588   0.534   0.536   0.588   0.618   0.562   0.579   0.561   0.502   0.672   0.781   0.783   0.725   0.732   0.869
    99.79    0.634   0.702   0.750   0.626   0.513   0.488   0.429   0.368   0.381   0.459   0.483   0.550   0.494   0.551   0.617   0.543   0.475   0.482   0.460   0.507   0.580   0.602   0.582   0.517   0.455   0.486   0.575   0.714   0.788   0.734   0.784   0.794   0.907
    95.73    0.738   0.818   0.788   0.630   0.596   0.537   0.499   0.414   0.470   0.432   0.460   0.556   0.579   0.513   0.606   0.623   0.581   0.479   0.469   0.545   0.566   0.500   0.475   0.474   0.424   0.495   0.599   0.698   0.771   0.839   0.823   0.900   0.950
    91.66    0.739   0.693   0.681   0.684   0.502   0.631   0.545   0.453   0.523   0.442   0.568   0.508   0.577   0.577   0.572   0.625   0.504   0.530   0.541   0.478   0.509   0.429   0.531   0.623   0.596   0.554   0.530   0.609   0.687   0.724   0.769   0.907   1.037
    87.60    0.694   0.653   0.573   0.631   0.508   0.594   0.618   0.493   0.458   0.551   0.530   0.622   0.572   0.523   0.557   0.593   0.642   0.531   0.501   0.489   0.557   0.535   0.616   0.665   0.646   0.641   0.539   0.592   0.645   0.795   0.795   0.981   1.073
    83.54    0.633   0.694   0.650   0.562   0.529   0.617   0.548   0.474   0.510   0.524   0.584   0.612   0.509   0.560   0.660   0.631   0.690   0.590   0.475   0.428   0.537   0.561   0.661   0.644   0.710   0.575   0.533   0.622   0.669   0.699   0.842   0.989   0.970
    79.48    0.649   0.627   0.633   0.672   0.658   0.591   0.580   0.551   0.541   0.618   0.529   0.623   0.631   0.658   0.683   0.729   0.616   0.592   0.557   0.498   0.569   0.585   0.658   0.666   0.573   0.531   0.569   0.657   0.635   0.764   0.840   0.937   1.007
    75.41    0.643   0.702   0.568   0.608   0.645   0.693   0.607   0.568   0.680   0.617   0.661   0.662   0.653   0.637   0.633   0.691   0.637   0.594   0.606   0.579   0.566   0.524   0.603   0.616   0.562   0.458   0.432   0.621   0.757   0.852   0.802   0.891   0.961
    71.35    0.535   0.593   0.575   0.611   0.625   0.692   0.794   0.723   0.723   0.727   0.761   0.689   0.719   0.683   0.673   0.621   0.633   0.586   0.610   0.658   0.651   0.572   0.590   0.648   0.649   0.528   0.489   0.559   0.777   0.877   0.837   0.933   0.942
    67.29    0.425   0.535   0.637   0.694   0.747   0.778   0.741   0.780   0.837   0.760   0.720   0.680   0.693   0.589   0.694   0.610   0.621   0.544   0.629   0.718   0.648   0.657   0.645   0.659   0.655   0.535   0.481   0.719   0.935   0.920   0.792   0.896   1.021
    63.23    0.543   0.500   0.643   0.726   0.779   0.767   0.832   0.705   0.791   0.815   0.869   0.793   0.701   0.656   0.586   0.684   0.648   0.667   0.632   0.662   0.694   0.626   0.556   0.561   0.578   0.610   0.591   0.785   0.833   0.976   0.879   0.962   1.020
    59.16    0.591   0.607   0.698   0.642   0.697   0.684   0.771   0.785   0.715   0.777   0.807   0.721   0.725   0.542   0.590   0.647   0.729   0.826   0.752   0.620   0.695   0.509   0.498   0.627   0.596   0.615   0.700   0.732   0.922   0.825   0.955   0.984   1.007
    55.10    0.558   0.589   0.661   0.720   0.678   0.625   0.716   0.762   0.769   0.755   0.666   0.739   0.647   0.596   0.585   0.722   0.650   0.754   0.734   0.715   0.625   0.533   0.496   0.602   0.686   0.659   0.775   0.794   0.870   0.891   0.926   0.878   0.955
    51.04    0.662   0.549   0.617   0.608   0.671   0.701   0.657   0.720   0.784   0.775   0.839   0.730   0.765   0.729   0.706   0.710   0.748   0.652   0.646   0.703   0.554   0.564   0.546   0.506   0.612   0.697   0.739   0.757   0.797   0.745   0.770   0.852   0.844
    46.98    0.652   0.518   0.601   0.603   0.654   0.673   0.800   0.737   0.753   0.702   0.692   0.731   0.706   0.834   0.734   0.720   0.651   0.737   0.736   0.714   0.522   0.480   0.583   0.571   0.547   0.640   0.695   0.661   0.765   0.671   0.735   0.862   0.677
    42.91    0.689   0.600   0.542   0.512   0.689   0.687   0.809   0.840   0.769   0.673   0.620   0.681   0.692   0.750   0.713   0.656   0.728   0.621   0.710   0.651   0.655   0.662   0.625   0.597   0.623   0.647   0.715   0.628   0.771   0.715   0.858   0.860   0.808
    38.85    0.605   0.616   0.657   0.642   0.759   0.738   0.870   0.729   0.646   0.634   0.629   0.559   0.653   0.772   0.758   0.688   0.779   0.640   0.684   0.642   0.648   0.617   0.635   0.604   0.611   0.647   0.737   0.750   0.798   0.651   0.768   0.832   0.707
    34.79    0.677   0.712   0.770   0.711   0.710   0.750   0.808   0.714   0.709   0.669   0.649   0.680   0.702   0.751   0.711   0.641   0.595   0.604   0.664   0.654   0.638   0.530   0.579   0.673   0.775   0.685   0.677   0.756   0.739   0.674   0.783   0.800   0.727
    30.73    0.665   0.771   0.896   0.817   0.710   0.735   0.812   0.680   0.804   0.746   0.587   0.583   0.636   0.690   0.658   0.665   0.580   0.510   0.679   0.543   0.532   0.551   0.642   0.760   0.838   0.752   0.769   0.593   0.716   0.696   0.825   0.791   0.704
    26.66    0.728   0.823   0.899   0.840   0.753   0.754   0.725   0.716   0.795   0.707   0.640   0.595   0.619   0.563   0.627   0.704   0.670   0.644   0.622   0.590   0.606   0.682   0.839   0.871   0.826   0.796   0.817   0.710   0.762   0.775   0.906   0.896   0.752
    22.60    0.789   0.770   0.824   0.754   0.736   0.782   0.740   0.811   0.859   0.809   0.651   0.587   0.670   0.712   0.650   0.734   0.721   0.598   0.673   0.688   0.640   0.719   0.836   0.939   0.904   0.881   0.851   0.738   0.771   0.883   0.946   0.991   0.848

   Height   Standard deviation at grid points for the v component:
   152.60    0.417   0.453   0.536   0.544   0.583   0.588   0.507   0.573   0.612   0.547   0.535   0.538   0.570   0.591   0.550   0.571   0.602   0.556   0.598   0.490   0.511   0.568   0.513   0.572   0.664   0.726   0.610   0.562   0.576   0.613   0.621   0.607   0.559
   148.54    0.428   0.475   0.535   0.533   0.568   0.566   0.525   0.529   0.560   0.583   0.528   0.546   0.537   0.545   0.643   0.661   0.650   0.655   0.582   0.560   0.571   0.534   0.593   0.558   0.652   0.655   0.659   0.611   0.590   0.530   0.540   0.498   0.519
   144.48    0.428   0.444   0.472   0.498   0.516   0.443   0.486   0.507   0.489   0.529   0.454   0.539   0.518   0.529   0.630   0.698   0.720   0.642   0.568   0.617   0.629   0.619   0.516   0.593   0.604   0.587   0.547   0.617   0.578   0.589   0.515   0.441   0.467
   140.41    0.409   0.483   0.493   0.496   0.456   0.431   0.474   0.462   0.425   0.464   0.473   0.529   0.550   0.633   0.588   0.667   0.613   0.673   0.666   0.606   0.631   0.546   0.521   0.600   0.578   0.646   0.610   0.639   0.592   0.568   0.494   0.437   0.454
   136.35    0.462   0.467   0.450   0.418   0.412   0.402   0.481   0.464   0.450   0.419   0.450   0.456   0.536   0.566   0.579   0.570   0.643   0.662   0.701   0.650   0.606   0.638   0.621   0.539   0.499   0.534   0.652   0.586   0.609   0.545   0.491   0.388   0.406
   132.29    0.438   0.451   0.470   0.499   0.455   0.496   0.480   0.436   0.457   0.408   0.435   0.553   0.574   0.547   0.516   0.522   0.569   0.610   0.662   0.699   0.626   0.541   0.564   0.592   0.521   0.583   0.657   0.623   0.585   0.546   0.415   0.388   0.402
   128.23    0.482   0.477   0.499   0.517   0.493   0.477   0.485   0.514   0.397   0.503   0.503   0.536   0.498   0.543   0.495   0.553   0.558   0.556   0.631   0.634   0.560   0.568   0.512   0.520   0.538   0.623   0.615   0.562   0.562   0.541   0.471   0.467   0.381
   124.16    0.449   0.452   0.492   0.455   0.517   0.458   0.433   0.444   0.466   0.509   0.556   0.512   0.484   0.547   0.568   0.527   0.530   0.559   0.597   0.614   0.642   0.540   0.504   0.494   0.543   0.618   0.613   0.584   0.549   0.520   0.467   0.483   0.403
   120.10    0.421   0.402   0.438   0.451   0.490   0.510   0.465   0.482   0.499   0.526   0.556   0.538   0.524   0.528   0.523   0.529   0.542   0.557   0.663   0.687   0.648   0.569   0.497   0.511   0.533   0.557   0.627   0.583   0.523   0.505   0.507   0.466   0.461
   116.04    0.398   0.410   0.403   0.445   0.447   0.470   0.445   0.510   0.505   0.526   0.509   0.557   0.569   0.552   0.580   0.474   0.604   0.614   0.615   0.614   0.606   0.542   0.496   0.501   0.513   0.550   0.496   0.509   0.521   0.509   0.532   0.471   0.471
   111.98    0.353   0.429   0.435   0.426   0.462   0.448   0.544   0.484   0.490   0.505   0.498   0.534   0.545   0.618   0.608   0.522   0.602   0.605   0.587   0.636   0.548   0.547   0.535   0.461   0.436   0.482   0.441   0.479   0.503   0.520   0.504   0.529   0.438
   107.91    0.413   0.452   0.486   0.483   0.472   0.457   0.522   0.487   0.458   0.485   0.490   0.585   0.620   0.603   0.573   0.601   0.593   0.564   0.649   0.658   0.611   0.523   0.542   0.480   0.504   0.491   0.437   0.473   0.478   0.447   0.487   0.523   0.510
   103.85    0.386   0.403   0.500   0.478   0.463   0.472   0.479   0.473   0.484   0.481   0.504   0.566   0.529   0.567   0.600   0.625   0.596   0.581   0.629   0.634   0.542   0.497   0.485   0.445   0.478   0.456   0.487   0.476   0.454   0.443   0.457   0.503   0.503
    99.79    0.420   0.473   0.537   0.453   0.529   0.456   0.515   0.450   0.502   0.488   0.562   0.528   0.518   0.563   0.607   0.577   0.575   0.587   0.601   0.615   0.520   0.483   0.454   0.425   0.409   0.475   0.535   0.495   0.494   0.483   0.489   0.457   0.503
    95.73    0.491   0.514   0.529   0.478   0.446   0.500   0.507   0.454   0.536   0.545   0.522   0.549   0.534   0.539   0.593   0.581   0.598   0.599   0.550   0.521   0.485   0.402   0.459   0.446   0.469   0.480   0.515   0.471   0.485   0.558   0.486   0.545   0.507
    91.66    0.490   0.511   0.515   0.450   0.484   0.452   0.495   0.523   0.562   0.565   0.598   0.517   0.579   0.568   0.557   0.620   0.610   0.538   0.518   0.531   0.468   0.421   0.445   0.459   0.523   0.469   0.488   0.465   0.496   0.568   0.487   0.500   0.467
    87.60    0.492   0.483   0.485   0.445   0.457   0.547   0.510   0.575   0.567   0.603   0.588   0.643   0.581   0.615   0.574   0.578   0.674   0.599   0.539   0.598   0.474   0.479   0.452   0.474   0.514   0.506   0.527   0.536   0.511   0.581   0.556   0.557   0.562
    83.54    0.458   0.508   0.492   0.481   0.512   0.560   0.583   0.587   0.654   0.660   0.710   0.689   0.611   0.649   0.682   0.645   0.627   0.662   0.673   0.622   0.569   0.555   0.492   0.495   0.524   0.526   0.559   0.602   0.594   0.628   0.579   0.546   0.434
    79.48    0.551   0.537   0.493   0.595   0.577   0.563   0.541   0.603   0.640   0.691   0.720   0.671   0.656   0.687   0.701   0.589   0.660   0.618   0.586   0.569   0.627   0.584   0.531   0.570   0.450   0.487   0.517   0.557   0.578   0.555   0.540   0.552   0.462
    75.41    0.572   0.566   0.624   0.597   0.608   0.523   0.529   0.525   0.567   0.613   0.638   0.603   0.575   0.649   0.608   0.641   0.646   0.672   0.649   0.568   0.545   0.591   0.501   0.551   0.549   0.503   0.508   0.495   0.474   0.501   0.520   0.486   0.478
    71.35    0.600   0.611   0.656   0.610   0.578   0.539   0.564   0.521   0.519   0.540   0.642   0.622   0.643   0.629   0.586   0.582   0.626   0.648   0.589   0.532   0.572   0.581   0.562   0.554   0.540   0.495   0.522   0.491   0.462   0.494   0.500   0.482   0.558
    67.29    0.568   0.645   0.644   0.592   0.592   0.517   0.525   0.512   0.516   0.533   0.576   0.634   0.629   0.578   0.573   0.608   0.679   0.678   0.603   0.581   0.516   0.522   0.473   0.478   0.515   0.527   0.564   0.510   0.509   0.446   0.494   0.476   0.554
    63.23    0.509   0.593   0.595   0.550   0.472   0.516   0.553   0.529   0.540   0.505   0.499   0.540   0.524   0.510   0.526   0.565   0.635   0.619   0.574   0.515   0.514   0.478   0.502   0.492   0.529   0.571   0.600   0.556   0.584   0.494   0.542   0.499   0.528
    59.16    0.538   0.558   0.576   0.530   0.516   0.506   0.563   0.557   0.489   0.503   0.501   0.500   0.527   0.536   0.578   0.537   0.577   0.562   0.560   0.483   0.440   0.491   0.506   0.498   0.471   0.590   0.638   0.598   0.608   0.566   0.552   0.514   0.509
    55.10    0.619   0.610   0.609   0.562   0.620   0.601   0.575   0.542   0.493   0.486   0.510   0.519   0.530   0.551   0.547   0.540   0.553   0.554   0.549   0.576   0.499   0.548   0.597   0.549   0.541   0.597   0.590   0.569   0.565   0.562   0.543   0.529   0.425
    51.04    0.565   0.607   0.664   0.662   0.664   0.557   0.535   0.550   0.475   0.525   0.486   0.528   0.563   0.508   0.517   0.585   0.613   0.600   0.597   0.605   0.595   0.578   0.593   0.588   0.572   0.560   0.565   0.451   0.477   0.533   0.534   0.477   0.476
    46.98    0.579   0.592   0.587   0.669   0.626   0.589   0.554   0.525   0.484   0.487   0.516   0.555   0.571   0.585   0.572   0.572   0.593   0.584   0.672   0.613   0.583   0.613   0.608   0.646   0.603   0.620   0.516   0.532   0.502   0.438   0.471   0.466   0.485
    42.91    0.627   0.583   0.610   0.617   0.627   0.586   0.610   0.544   0.493   0.575   0.519   0.515   0.520   0.608   0.614   0.615   0.583   0.642   0.618   0.613   0.649   0.623   0.572   0.606   0.560   0.654   0.565   0.546   0.561   0.530   0.453   0.486   0.466
    38.85    0.606   0.577   0.601   0.587   0.535   0.517   0.551   0.545   0.503   0.532   0.558   0.535   0.560   0.655   0.679   0.602   0.562   0.581   0.605   0.649   0.692   0.685   0.616   0.613   0.556   0.555   0.583   0.610   0.567   0.562   0.442   0.454   0.489
    34.79    0.643   0.596   0.552   0.537   0.543   0.569   0.535   0.502   0.508   0.546   0.532   0.499   0.592   0.630   0.644   0.668   0.585   0.556   0.604   0.615   0.651   0.574   0.627   0.606   0.570   0.527   0.576   0.581   0.596   0.514   0.432   0.476   0.495
    30.73    0.682   0.684   0.569   0.561   0.571   0.552   0.517   0.520   0.492   0.597   0.601   0.673   0.697   0.635   0.619   0.589   0.558   0.566   0.561   0.610   0.708   0.621   0.664   0.629   0.556   0.572   0.569   0.567   0.515   0.513   0.488   0.491   0.496
    26.66    0.669   0.642   0.559   0.591   0.572   0.580   0.570   0.530   0.568   0.601   0.622   0.631   0.594   0.570   0.648   0.594   0.569   0.574   0.509   0.580   0.660   0.664   0.643   0.632   0.643   0.572   0.580   0.600   0.662   0.567   0.541   0.535   0.542
    22.60    0.652   0.612   0.585   0.495   0.505   0.534   0.577   0.607   0.574   0.589   0.598   0.540   0.598   0.625   0.645   0.612   0.625   0.587   0.599   0.611   0.634   0.638   0.594   0.610   0.638   0.673   0.554   0.641   0.596   0.621   0.610   0.584   0.559

   Height   Standard deviation at grid points for the w component:
   152.60    0.480   0.503   0.502   0.483   0.507   0.505   0.605   0.633   0.630   0.564   0.590   0.571   0.557   0.584   0.574   0.530   0.516   0.465   0.514   0.511   0.498   0.490   0.472   0.446   0.432   0.487   0.500   0.466   0.520   0.495   0.436   0.454   0.453
   148.54    0.500   0.502   0.562   0.569   0.566   0.533   0.574   0.659   0.626   0.651   0.666   0.555   0.559   0.503   0.535   0.463   0.430   0.486   0.491   0.528   0.571   0.506   0.468   0.463   0.467   0.514   0.480   0.529   0.533   0.549   0.453   0.490   0.489
   144.48    0.507   0.535   0.551   0.616   0.634   0.574   0.599   0.639   0.678   0.655   0.650   0.594   0.538   0.480   0.502   0.445   0.449   0.449   0.517   0.506   0.469   0.534   0.514   0.491   0.438   0.448   0.526   0.537   0.534   0.461   0.484   0.514   0.527
   140.41    0.538   0.550   0.568   0.576   0.555   0.559   0.559   0.626   0.568   0.649   0.645   0.549   0.534   0.488   0.457   0.503   0.487   0.521   0.515   0.478   0.463   0.491   0.486   0.453   0.497   0.514   0.559   0.532   0.538   0.514   0.514   0.507   0.552
   136.35    0.501   0.495   0.532   0.529   0.516   0.553   0.543   0.639   0.654   0.663   0.644   0.577   0.514   0.469   0.479   0.528   0.493   0.499   0.495   0.492   0.456   0.480   0.493   0.456   0.506   0.496   0.538   0.513   0.506   0.526   0.578   0.552   0.509
   132.29    0.475   0.506   0.544   0.495   0.500   0.537   0.546   0.594   0.587   0.639   0.628   0.543   0.468   0.512   0.501   0.489   0.499   0.436   0.476   0.476   0.527   0.518   0.481   0.505   0.491   0.537   0.535   0.525   0.537   0.539   0.547   0.524   0.531
   128.23    0.500   0.520   0.494   0.508   0.527   0.546   0.520   0.587   0.573   0.567   0.533   0.471   0.444   0.471   0.514   0.524   0.501   0.434   0.428   0.501   0.528   0.506   0.507   0.524   0.521   0.507   0.549   0.490   0.491   0.527   0.577   0.546   0.588
   124.16    0.497   0.587   0.577   0.601   0.590   0.569   0.554   0.576   0.550   0.551   0.501   0.489   0.418   0.528   0.471   0.481   0.464   0.439   0.452   0.465   0.461   0.484   0.461   0.451   0.526   0.505   0.531   0.502   0.487   0.584   0.556   0.607   0.646
   120.10    0.477   0.548   0.599   0.598   0.514   0.525   0.546   0.497   0.498   0.529   0.534   0.594   0.519   0.544   0.514   0.525   0.510   0.496   0.523   0.493   0.465   0.484   0.468   0.454   0.504   0.476   0.468   0.440   0.499   0.531   0.550   0.579   0.571
   116.04    0.528   0.544   0.576   0.633   0.560   0.546   0.504   0.475   0.486   0.535   0.545   0.500   0.499   0.544   0.547   0.572   0.549   0.584   0.577   0.537   0.538   0.528   0.476   0.468   0.499   0.500   0.535   0.439   0.433   0.470   0.548   0.615   0.519
   111.98    0.669   0.664   0.613   0.652   0.584   0.495   0.507   0.520   0.538   0.561   0.589   0.498   0.492   0.524   0.587   0.583   0.571   0.500   0.546   0.544   0.490   0.438   0.470   0.480   0.463   0.502   0.496   0.445   0.471   0.524   0.526   0.553   0.506
   107.91    0.708   0.660   0.708   0.666   0.627   0.527   0.460   0.491   0.530   0.581   0.515   0.509   0.413   0.506   0.548   0.627   0.529   0.519   0.496   0.516   0.490   0.439   0.466   0.430   0.445   0.466   0.433   0.403   0.470   0.531   0.501   0.490   0.466
   103.85    0.706   0.705   0.683   0.640   0.610   0.555   0.487   0.512   0.519   0.521   0.519   0.496   0.480   0.481   0.521   0.599   0.585   0.515   0.465   0.435   0.413   0.450   0.492   0.481   0.482   0.505   0.483   0.408   0.453   0.520   0.455   0.435   0.494
    99.79    0.634   0.657   0.667   0.598   0.613   0.543   0.520   0.433   0.437   0.498   0.485   0.553   0.517   0.464   0.512   0.566   0.540   0.506   0.471   0.448   0.454   0.461   0.463   0.431   0.513   0.472   0.434   0.387   0.393   0.441   0.458   0.438   0.435
    95.73    0.697   0.674   0.613   0.563   0.591   0.586   0.501   0.463   0.420   0.468   0.469   0.486   0.554   0.535   0.548   0.572   0.542   0.416   0.458   0.417   0.428   0.428   0.469   0.448   0.494   0.572   0.484   0.423   0.422   0.454   0.510   0.434   0.443
    91.66    0.701   0.627   0.615   0.602   0.547   0.575   0.529   0.460   0.479   0.513   0.548   0.564   0.530   0.515   0.539   0.482   0.526   0.483   0.539   0.472   0.434   0.437   0.466   0.477   0.511   0.552   0.481   0.475   0.470   0.455   0.501   0.440   0.449
    87.60    0.670   0.674   0.595   0.602   0.553   0.468   0.529   0.491   0.515   0.559   0.544   0.586   0.531   0.518   0.484   0.479   0.500   0.483   0.545   0.506   0.453   0.463   0.489   0.476   0.459   0.469   0.486   0.460   0.406   0.472   0.457   0.459   0.452
    83.54    0.616   0.610   0.574   0.526   0.516   0.454   0.454   0.553   0.564   0.540   0.566   0.606   0.560   0.535   0.488   0.517   0.518   0.538   0.582   0.531   0.482   0.468   0.503   0.486   0.480   0.471   0.467   0.462   0.476   0.451   0.479   0.487   0.449
    79.48    0.613   0.619   0.565   0.565   0.504   0.527   0.509   0.557   0.608   0.568   0.538   0.546   0.528   0.545   0.530   0.555   0.596   0.557   0.580   0.580   0.537   0.512   0.523   0.494   0.499   0.482   0.460   0.509   0.449   0.419   0.444   0.467   0.513
    75.41    0.597   0.620   0.574   0.549   0.547   0.580   0.604   0.524   0.547   0.546   0.556   0.524   0.469   0.491   0.575   0.642   0.615   0.547   0.595   0.578   0.577   0.529   0.464   0.495   0.472   0.508   0.468   0.451   0.445   0.463   0.469   0.470   0.512
    71.35    0.546   0.576   0.600   0.556   0.548   0.590   0.584   0.566   0.504   0.496   0.494   0.492   0.488   0.504   0.536   0.521   0.537   0.504   0.474   0.559   0.527   0.487   0.462   0.445   0.475   0.535   0.581   0.490   0.498   0.454   0.434   0.487   0.462
    67.29    0.547   0.586   0.594   0.585   0.580   0.563   0.533   0.546   0.526   0.490   0.517   0.481   0.485   0.469   0.541   0.499   0.477   0.494   0.495   0.539   0.546   0.496   0.469   0.530   0.547   0.551   0.514   0.512   0.517   0.474   0.450   0.461   0.463
    63.23    0.541   0.593   0.600   0.559   0.590   0.564   0.557   0.492   0.519   0.483   0.514   0.530   0.468   0.517   0.501   0.467   0.399   0.456   0.471   0.573   0.570   0.537   0.561   0.557   0.604   0.571   0.534   0.470   0.478   0.480   0.471   0.494   0.395
    59.16    0.547   0.567   0.611   0.535   0.609   0.559   0.541   0.556   0.489   0.490   0.506   0.500   0.535   0.454   0.445   0.465   0.437   0.435   0.503   0.578   0.588   0.513   0.579   0.507   0.514   0.546   0.525   0.522   0.486   0.441   0.448   0.435   0.431
    55.10    0.533   0.507   0.546   0.544   0.549   0.577   0.597   0.595   0.528   0.516   0.495   0.547   0.532   0.477   0.419   0.420   0.457   0.542   0.516   0.570   0.577   0.576   0.557   0.554   0.515   0.523   0.563   0.536   0.534   0.497   0.438   0.460   0.418
    51.04    0.605   0.515   0.518   0.534   0.554   0.610   0.574   0.626   0.603   0.555   0.514   0.511   0.473   0.477   0.478   0.443   0.488   0.481   0.514   0.568   0.568   0.556   0.532   0.577   0.553   0.577   0.585   0.551   0.572   0.499   0.463   0.466   0.429
    46.98    0.596   0.511   0.568   0.551   0.549   0.589   0.653   0.628   0.590   0.533   0.485   0.455   0.503   0.479   0.488   0.463   0.475   0.519   0.510   0.527   0.527   0.544   0.572   0.549   0.480   0.556   0.558   0.560   0.455   0.524   0.522   0.450   0.446
    42.91    0.597   0.578   0.543   0.558   0.572   0.598   0.635   0.600   0.573   0.561   0.490   0.501   0.487   0.561   0.461   0.497   0.564   0.563   0.527   0.519   0.525   0.569   0.593   0.585   0.584   0.591   0.538   0.518   0.500   0.480   0.521   0.494   0.475
    38.85    0.534   0.511   0.535   0.545   0.557   0.563   0.599   0.582   0.579   0.528   0.544   0.515   0.588   0.514   0.453   0.508   0.565   0.526   0.610   0.510   0.509   0.562   0.526   0.579   0.546   0.563   0.531   0.550   0.442   0.470   0.419   0.499   0.481
    34.79    0.524   0.534   0.534   0.594   0.661   0.621   0.658   0.598   0.550   0.515   0.515   0.557   0.526   0.523   0.492   0.489   0.535   0.588   0.569   0.502   0.521   0.542   0.564   0.510   0.524   0.567   0.575   0.568   0.491   0.450   0.471   0.475   0.472
    30.73    0.554   0.553   0.552   0.588   0.590   0.603   0.655   0.596   0.571   0.504   0.506   0.475   0.511   0.525   0.543   0.514   0.530   0.527   0.577   0.556   0.550   0.535   0.554   0.502   0.484   0.519   0.570   0.529   0.490   0.450   0.450   0.477   0.483
    26.66    0.571   0.562   0.579   0.573   0.558   0.528   0.556   0.545   0.538   0.479   0.454   0.481   0.494   0.584   0.516   0.524   0.557   0.531   0.545   0.556   0.541   0.556   0.552   0.539   0.546   0.505   0.513   0.508   0.494   0.478   0.511   0.489   0.518
    22.60    0.537   0.506   0.506   0.565   0.530   0.536   0.544   0.607   0.535   0.522   0.515   0.557   0.496   0.513   0.527   0.535   0.588   0.557   0.516   0.495   0.555   0.522   0.550   0.505   0.501   0.483   0.520   0.505   0.511   0.544   0.526   0.539   0.552

   Mean standard deviation across all grid points:
      u component:    0.637 m/s
      v component:    0.547 m/s
      w component:    0.523 m/s


U-component (X) statistics from the hub grid point:

   Mean =   8.0000 m/s
   TI   =   8.0299 %

Nyquist frequency of turbulent wind field =        10.000 Hz


Processing complete.  76.562 CPU seconds used.
