
This summary file was generated by TurbSim (v1.06.00, 21-Sep-2012) on 02-Sep-2020 at 21:05:59.


Runtime Options:

   2318573  Random seed #1
    RANLUX  Type of random number generator
         F  Output binary HH turbulence parameters?
         F  Output formatted turbulence parameters?
         F  Output AeroDyn HH files?
         T  Output AeroDyn FF files?
         F  Output BLADED FF files?
         T  Output tower data?
         F  Output formatted FF files?
         F  Output coherent turbulence time step file?
         T  Clockwise rotation when looking downwind?
 0 -  NONE  IEC turbulence models scaled to exact specified standard deviation


Turbine/Model Specifications:

        31  Vertical grid-point matrix dimension
        31  Horizontal grid-point matrix dimension
     0.050  Time step [seconds]
   600.000  Analysis time [seconds]
   600.000  Usable output time [seconds]
    87.600  Hub height [m]
   140.000  Grid height [m]
   140.000  Grid width [m]
     0.000  Vertical flow angle [degrees]
     0.000  Horizontal flow angle [degrees]


Meteorological Boundary Conditions:

    SMOOTH  RISO Smooth Terrain spectral model
       N/A  IEC standard
       N/A  IEC turbulence characteristic
       N/A  IEC turbulence type
       N/A  IEC Extreme Turbulence Model (ETM) "c" parameter [m/s]
       IEC  Wind profile type
    90.000  Reference height [m]
    14.000  Reference wind speed [m/s]
       N/A  Jet height [m]
     0.143  Power law exponent
     0.010  Surface roughness length [m]


Non-IEC Meteorological Boundary Conditions:

    45.000  Site latitude [degrees]
     0.050  Gradient Richardson number
     0.593  Friction or shear velocity [m/s]
       N/A  Mixing layer depth [m]
    -0.352  Mean hub u'w' Reynolds stress
       N/A  Mean hub u'v' Reynolds stress
       N/A  Mean hub v'w' Reynolds stress
(   13.946,  0.00    )  u-component coherence parameters
(   10.459,  0.00    )  v-component coherence parameters
(   10.459,  0.00    )  w-component coherence parameters
     0.000  Coherence exponent


You have requested that the following file(s) be generated:

   unsteady_tmp_14.bts (AeroDyn/TurbSim full-field wind file)


Turbulence Simulation Scaling Parameter Summary:

   Turbulence model used                            =  RISO Smooth Terrain
   Gradient Richardson number                       =    0.050
   Monin-Obukhov (M-O) z/L parameter                =    0.067
   Monin-Obukhov (M-O) length scale                 = 1314.000 m
   Mean wind speed at hub height                    =   13.946 m/s

   Wind profile type                                =  Power law on rotor disk, logarithmic elsewhere
   Power law exponent                               =    0.143
   Mean shear across rotor disk                     =    0.027 (m/s)/m
   Assumed rotor diameter                           =  140.000 m
   Surface roughness length                         =    0.010 m

   Number of time steps in the FFT                  =    12236
   Number of time steps output                      =    12201


Mean Flow Angles:

   Vertical   =   0.0 degrees
   Horizontal =   0.0 degrees

Mean Wind Speed Profile:

   Height    Wind Speed   Horizontal Angle  U-comp (X)   V-comp (Y)   W-comp (Z)
     (m)        (m/s)         (degrees)       (m/s)        (m/s)        (m/s)   
   ------    ----------   ----------------  ----------   ----------   ----------
    157.6       14.85            0.00         14.85         0.00         0.00
    152.9       15.10            0.00         15.10         0.00         0.00
    148.3       15.04            0.00         15.04         0.00         0.00
    143.6       14.97            0.00         14.97         0.00         0.00
    138.9       14.90            0.00         14.90         0.00         0.00
    134.3       14.82            0.00         14.82         0.00         0.00
    129.6       14.75            0.00         14.75         0.00         0.00
    124.9       14.67            0.00         14.67         0.00         0.00
    120.3       14.59            0.00         14.59         0.00         0.00
    115.6       14.51            0.00         14.51         0.00         0.00
    110.9       14.42            0.00         14.42         0.00         0.00
    106.3       14.34            0.00         14.34         0.00         0.00
    101.6       14.24            0.00         14.24         0.00         0.00
     96.9       14.15            0.00         14.15         0.00         0.00
     92.3       14.05            0.00         14.05         0.00         0.00
     87.6       13.95            0.00         13.95         0.00         0.00
     82.9       13.84            0.00         13.84         0.00         0.00
     78.3       13.72            0.00         13.72         0.00         0.00
     73.6       13.60            0.00         13.60         0.00         0.00
     68.9       13.48            0.00         13.48         0.00         0.00
     64.3       13.34            0.00         13.34         0.00         0.00
     59.6       13.20            0.00         13.20         0.00         0.00
     54.9       13.05            0.00         13.05         0.00         0.00
     50.3       12.88            0.00         12.88         0.00         0.00
     45.6       12.70            0.00         12.70         0.00         0.00
     40.9       12.51            0.00         12.51         0.00         0.00
     36.3       12.29            0.00         12.29         0.00         0.00
     31.6       12.05            0.00         12.05         0.00         0.00
     26.9       11.78            0.00         11.78         0.00         0.00
     22.3       11.47            0.00         11.47         0.00         0.00
     17.6       11.09            0.00         11.09         0.00         0.00
     12.9       11.01            0.00         11.01         0.00         0.00
      8.3       10.32            0.00         10.32         0.00         0.00
      3.6        9.04            0.00          9.04         0.00         0.00


Harvested Random Seeds after Generation of the Random Numbers:

    164399837 K1
            0 K2


Scaling statistics from the hub grid point:

   Cross-Component  Scaling Factor
   ---------------  --------------
   u'w'               -0.12776E+00
   u'v'                0.00000E+00
   v'w'                0.00000E+00


Hub-Height Simulated Turbulence Statistical Summary:

   Type of Wind        Min (m/s)   Mean (m/s)    Max (m/s)  Sigma (m/s)       TI (%)
   ----------------    ---------   ----------    ---------  -----------       ------
   Longitudinal (u)         9.40        13.95        19.47        1.735       12.441
   Lateral (v)             -3.15         0.00         3.71        0.998        7.159
   Vertical (w)            -2.98         0.00         3.43        0.932        6.680
   U component              9.40        13.95        19.47        1.735       12.441
   V component             -3.15         0.00         3.71        0.998        7.159
   W component             -2.98         0.00         3.43        0.932        6.680
   Horizontal (U&V)         9.40        13.98        19.47        1.739       12.436
   Total                    9.41        14.01        19.51        1.739       12.412

                       Min Reynolds     Mean Reynolds    Max Reynolds    Correlation
   Product             Stress (m/s)^2   Stress (m/s)^2   Stress (m/s)^2  Coefficient
   ----------------    --------------   --------------   --------------  -----------
   u'w'                     -9.862            -0.352             8.761        -0.218
   u'v'                     -8.911             0.047            13.951         0.027
   v'w'                     -5.366             0.008             6.236         0.008


   Friction Velocity (Ustar)  =      0.593 m/s
   Maximum Instantaneous TKE  =     15.923 (m/s)^2
   Maximum Instantaneous CTKE =      7.352 (m/s)^2


Grid Point Variance Summary:

   Y-coord  -70.00  -65.33  -60.67  -56.00  -51.33  -46.67  -42.00  -37.33  -32.67  -28.00  -23.33  -18.67  -14.00   -9.33   -4.67    0.00    4.67    9.33   14.00   18.67   23.33   28.00   32.67   37.33   42.00   46.67   51.33   56.00   60.67   65.33   70.00

   Height   Standard deviation at grid points for the u component:
   157.60    1.707   1.653   1.615   1.584   1.529   1.569   1.658   1.589   1.563   1.571   1.600   1.570   1.595   1.518   1.595   1.672   1.599   1.558   1.593   1.613   1.599   1.557   1.547   1.562   1.641   1.564   1.630   1.525   1.499   1.485   1.563
   152.93    1.769   1.735   1.631   1.569   1.590   1.599   1.639   1.643   1.604   1.623   1.566   1.564   1.476   1.628   1.646   1.648   1.621   1.597   1.652   1.566   1.586   1.588   1.501   1.571   1.525   1.568   1.590   1.547   1.516   1.538   1.598
   148.27    1.771   1.698   1.708   1.676   1.757   1.786   1.697   1.669   1.648   1.609   1.592   1.553   1.560   1.569   1.656   1.651   1.595   1.647   1.682   1.613   1.574   1.558   1.536   1.623   1.588   1.570   1.576   1.566   1.558   1.532   1.633
   143.60    1.735   1.701   1.765   1.728   1.703   1.764   1.802   1.757   1.687   1.607   1.655   1.597   1.581   1.597   1.623   1.630   1.653   1.631   1.550   1.552   1.593   1.535   1.547   1.620   1.515   1.536   1.590   1.552   1.551   1.583   1.594
   138.93    1.714   1.685   1.687   1.700   1.717   1.792   1.796   1.805   1.661   1.610   1.641   1.574   1.548   1.577   1.720   1.671   1.670   1.610   1.567   1.556   1.586   1.622   1.562   1.526   1.572   1.567   1.585   1.525   1.480   1.578   1.543
   134.27    1.745   1.731   1.817   1.798   1.791   1.822   1.714   1.833   1.769   1.739   1.651   1.636   1.541   1.611   1.645   1.651   1.600   1.604   1.552   1.597   1.664   1.579   1.585   1.604   1.645   1.657   1.542   1.442   1.437   1.545   1.497
   129.60    1.726   1.694   1.763   1.744   1.773   1.814   1.798   1.783   1.811   1.769   1.733   1.657   1.628   1.617   1.565   1.590   1.622   1.547   1.602   1.581   1.591   1.605   1.628   1.582   1.601   1.594   1.464   1.421   1.451   1.449   1.504
   124.93    1.787   1.784   1.743   1.769   1.715   1.731   1.767   1.768   1.809   1.811   1.812   1.785   1.681   1.624   1.594   1.549   1.632   1.588   1.576   1.612   1.672   1.573   1.585   1.626   1.550   1.534   1.506   1.477   1.457   1.411   1.421
   120.27    1.832   1.812   1.802   1.713   1.692   1.706   1.719   1.777   1.777   1.742   1.796   1.781   1.727   1.671   1.618   1.570   1.584   1.645   1.622   1.673   1.600   1.584   1.645   1.618   1.478   1.443   1.469   1.448   1.472   1.387   1.371
   115.60    1.799   1.745   1.710   1.713   1.685   1.675   1.663   1.763   1.791   1.790   1.791   1.795   1.735   1.655   1.625   1.626   1.607   1.572   1.602   1.648   1.561   1.531   1.579   1.568   1.485   1.521   1.513   1.464   1.496   1.483   1.368
   110.93    1.789   1.783   1.769   1.712   1.730   1.697   1.710   1.699   1.767   1.735   1.728   1.734   1.728   1.676   1.655   1.588   1.635   1.587   1.523   1.557   1.597   1.548   1.587   1.572   1.577   1.599   1.652   1.567   1.484   1.487   1.427
   106.27    1.699   1.740   1.697   1.742   1.756   1.689   1.796   1.734   1.820   1.801   1.817   1.766   1.725   1.816   1.717   1.704   1.708   1.621   1.568   1.577   1.558   1.554   1.588   1.593   1.685   1.598   1.582   1.592   1.505   1.502   1.440
   101.60    1.705   1.698   1.679   1.716   1.774   1.746   1.755   1.793   1.839   1.848   1.903   1.898   1.802   1.860   1.834   1.736   1.684   1.666   1.496   1.605   1.604   1.647   1.676   1.581   1.621   1.630   1.578   1.551   1.505   1.522   1.466
    96.93    1.704   1.713   1.682   1.701   1.684   1.724   1.757   1.756   1.782   1.867   1.916   1.890   1.899   1.911   1.849   1.826   1.647   1.558   1.544   1.585   1.609   1.703   1.702   1.629   1.679   1.610   1.599   1.578   1.585   1.535   1.466
    92.27    1.687   1.743   1.712   1.762   1.749   1.689   1.782   1.810   1.783   1.798   1.810   1.863   1.844   1.847   1.877   1.800   1.611   1.541   1.524   1.578   1.655   1.723   1.716   1.730   1.684   1.606   1.637   1.653   1.598   1.621   1.536
    87.60    1.689   1.743   1.772   1.700   1.696   1.700   1.749   1.795   1.769   1.792   1.689   1.741   1.754   1.808   1.820   1.735   1.635   1.579   1.529   1.639   1.704   1.744   1.752   1.819   1.749   1.754   1.607   1.661   1.493   1.512   1.484
    82.93    1.673   1.723   1.737   1.749   1.760   1.783   1.870   1.773   1.779   1.742   1.751   1.759   1.727   1.752   1.709   1.630   1.669   1.580   1.580   1.674   1.675   1.734   1.773   1.694   1.727   1.704   1.641   1.651   1.476   1.421   1.429
    78.27    1.723   1.725   1.741   1.805   1.842   1.862   1.826   1.769   1.737   1.701   1.734   1.725   1.750   1.769   1.684   1.678   1.630   1.657   1.662   1.651   1.642   1.798   1.765   1.700   1.647   1.701   1.645   1.616   1.506   1.394   1.386
    73.60    1.766   1.813   1.793   1.777   1.781   1.721   1.738   1.671   1.601   1.684   1.673   1.682   1.757   1.791   1.748   1.720   1.716   1.672   1.678   1.621   1.678   1.764   1.712   1.673   1.631   1.656   1.723   1.591   1.614   1.555   1.552
    68.93    1.719   1.760   1.791   1.731   1.761   1.729   1.697   1.624   1.574   1.631   1.694   1.671   1.685   1.815   1.784   1.705   1.676   1.708   1.709   1.598   1.649   1.626   1.649   1.567   1.576   1.542   1.590   1.637   1.668   1.662   1.644
    64.27    1.815   1.879   1.832   1.785   1.705   1.736   1.638   1.605   1.583   1.667   1.604   1.582   1.669   1.741   1.771   1.779   1.715   1.667   1.622   1.604   1.625   1.647   1.644   1.671   1.651   1.532   1.624   1.758   1.675   1.680   1.653
    59.60    1.769   1.872   1.867   1.736   1.779   1.676   1.647   1.614   1.620   1.575   1.482   1.529   1.602   1.705   1.688   1.696   1.665   1.640   1.657   1.589   1.575   1.611   1.659   1.655   1.591   1.590   1.634   1.659   1.700   1.692   1.626
    54.93    1.761   1.764   1.818   1.773   1.792   1.684   1.615   1.516   1.562   1.473   1.470   1.538   1.581   1.625   1.705   1.592   1.558   1.620   1.571   1.608   1.664   1.689   1.670   1.625   1.563   1.544   1.617   1.664   1.610   1.653   1.628
    50.27    1.762   1.844   1.762   1.765   1.680   1.676   1.594   1.528   1.536   1.478   1.464   1.508   1.593   1.647   1.593   1.551   1.483   1.571   1.624   1.609   1.607   1.612   1.633   1.547   1.495   1.501   1.502   1.568   1.548   1.581   1.662
    45.60    1.738   1.763   1.779   1.705   1.646   1.623   1.559   1.512   1.465   1.484   1.451   1.452   1.537   1.516   1.549   1.529   1.524   1.536   1.528   1.583   1.575   1.544   1.542   1.515   1.460   1.513   1.449   1.514   1.525   1.499   1.594
    40.93    1.723   1.731   1.697   1.566   1.557   1.597   1.608   1.573   1.447   1.384   1.459   1.477   1.520   1.553   1.581   1.578   1.470   1.456   1.481   1.533   1.572   1.540   1.519   1.523   1.449   1.475   1.534   1.582   1.564   1.551   1.659
    36.27    1.637   1.646   1.659   1.638   1.592   1.519   1.481   1.412   1.445   1.461   1.485   1.435   1.457   1.515   1.491   1.510   1.447   1.454   1.482   1.446   1.439   1.487   1.493   1.552   1.595   1.608   1.486   1.510   1.524   1.551   1.612
    31.60    1.679   1.678   1.621   1.603   1.606   1.553   1.470   1.448   1.417   1.477   1.499   1.537   1.533   1.535   1.524   1.550   1.456   1.456   1.460   1.385   1.380   1.401   1.428   1.588   1.608   1.597   1.518   1.559   1.533   1.520   1.571
    26.93    1.600   1.676   1.595   1.539   1.541   1.510   1.453   1.475   1.480   1.459   1.556   1.552   1.516   1.542   1.576   1.511   1.502   1.512   1.431   1.447   1.381   1.413   1.458   1.543   1.592   1.587   1.569   1.571   1.558   1.510   1.544
    22.27    1.638   1.611   1.635   1.506   1.519   1.412   1.445   1.426   1.571   1.568   1.596   1.551   1.516   1.559   1.595   1.550   1.511   1.443   1.403   1.377   1.431   1.433   1.485   1.557   1.583   1.592   1.548   1.528   1.584   1.569   1.600
    17.60    1.533   1.637   1.584   1.454   1.490   1.444   1.423   1.417   1.515   1.581   1.602   1.665   1.616   1.528   1.540   1.518   1.554   1.476   1.486   1.405   1.500   1.448   1.459   1.492   1.574   1.515   1.513   1.549   1.521   1.482   1.604

   Height   Standard deviation at grid points for the v component:
   157.60    1.049   1.038   1.028   1.015   1.046   1.028   1.069   1.024   0.970   1.003   1.090   1.128   1.152   1.137   1.078   1.094   1.023   1.022   1.015   1.042   1.026   0.989   0.991   1.040   1.026   1.034   1.028   1.007   1.042   1.027   1.012
   152.93    1.103   1.080   1.056   1.048   1.052   1.097   1.057   1.008   1.008   1.010   1.063   1.138   1.137   1.104   1.073   1.087   1.045   1.070   1.082   1.082   1.048   0.994   1.012   1.026   1.020   1.057   1.027   1.032   1.042   1.046   1.068
   148.27    1.102   1.102   1.076   1.047   1.075   1.051   1.064   1.011   1.024   0.992   1.017   1.092   1.083   1.022   1.030   1.046   1.075   1.095   1.098   1.048   1.081   1.026   1.016   1.024   1.052   1.043   1.067   1.065   1.069   1.038   1.070
   143.60    1.141   1.138   1.107   1.149   1.118   1.069   1.025   0.992   1.012   1.015   1.046   1.060   1.042   1.045   1.064   1.070   1.073   1.124   1.144   1.079   1.066   1.031   1.027   1.022   1.047   1.069   1.040   1.032   1.047   1.067   1.074
   138.93    1.198   1.149   1.136   1.117   1.096   1.076   1.054   1.007   0.943   1.014   1.062   1.069   1.030   1.032   1.042   1.050   1.072   1.067   1.156   1.098   1.063   1.093   1.061   1.032   1.031   1.082   1.061   1.068   1.057   1.094   1.120
   134.27    1.153   1.163   1.168   1.134   1.079   1.059   1.079   0.990   0.961   0.982   1.040   1.071   1.075   1.051   1.021   1.013   1.010   1.062   1.067   1.163   1.115   1.089   1.064   1.082   1.094   1.097   1.090   1.080   1.112   1.127   1.112
   129.60    1.150   1.162   1.137   1.136   1.091   1.075   1.078   1.033   0.995   1.021   1.037   1.060   1.041   1.028   1.016   1.001   1.000   1.033   1.082   1.113   1.110   1.050   1.046   1.077   1.057   1.103   1.151   1.137   1.149   1.132   1.101
   124.93    1.202   1.176   1.159   1.110   1.104   1.073   1.069   1.011   0.950   1.045   1.069   1.043   0.993   1.014   0.993   0.994   1.020   1.022   1.072   1.087   1.038   1.064   1.066   1.114   1.141   1.128   1.145   1.136   1.164   1.139   1.134
   120.27    1.163   1.178   1.174   1.151   1.110   1.090   1.069   1.004   0.995   1.000   1.035   1.043   1.007   0.971   1.004   0.990   0.980   1.023   1.004   0.972   1.023   1.020   1.070   1.112   1.119   1.141   1.126   1.113   1.163   1.184   1.167
   115.60    1.130   1.188   1.200   1.140   1.121   1.113   1.059   1.028   1.034   1.052   1.063   1.069   1.035   0.965   0.988   0.996   0.997   1.007   0.995   1.061   1.066   1.092   1.078   1.073   1.087   1.101   1.122   1.127   1.129   1.122   1.141
   110.93    1.148   1.198   1.187   1.202   1.156   1.177   1.090   1.056   1.080   1.094   1.047   1.057   1.028   0.974   0.999   0.961   1.000   1.000   1.028   1.053   1.081   1.064   1.049   1.079   1.068   1.047   1.108   1.118   1.106   1.107   1.153
   106.27    1.142   1.141   1.161   1.175   1.181   1.139   1.118   1.120   1.086   1.116   1.085   1.043   1.042   0.958   0.963   0.967   1.014   0.998   1.003   1.057   1.047   1.061   1.094   1.111   1.088   1.050   1.048   1.095   1.071   1.149   1.150
   101.60    1.090   1.102   1.149   1.125   1.123   1.188   1.155   1.126   1.109   1.134   1.072   1.026   1.033   0.952   0.966   1.047   1.062   1.044   1.046   1.069   1.058   1.064   1.060   1.085   1.069   1.062   1.073   1.110   1.135   1.160   1.193
    96.93    1.117   1.090   1.125   1.097   1.124   1.184   1.095   1.098   1.061   1.098   1.144   1.069   1.034   1.019   1.016   1.047   1.056   1.056   1.055   1.072   1.061   1.051   1.025   1.063   1.065   1.114   1.109   1.165   1.160   1.180   1.209
    92.27    1.122   1.124   1.045   1.068   1.108   1.091   1.142   1.108   1.085   1.152   1.139   1.124   1.077   1.051   1.030   1.037   1.020   1.074   1.040   1.047   1.053   1.073   1.039   1.051   1.043   1.062   1.065   1.135   1.175   1.170   1.187
    87.60    1.168   1.153   1.081   1.083   1.107   1.090   1.116   1.124   1.062   1.106   1.085   1.110   1.112   1.125   1.074   0.998   1.035   1.063   1.034   1.049   1.054   1.070   1.095   1.075   1.036   1.042   1.085   1.158   1.180   1.179   1.198
    82.93    1.221   1.124   1.139   1.125   1.115   1.101   1.086   1.100   1.117   1.058   1.092   1.059   1.105   1.111   1.110   1.066   1.083   1.068   1.044   1.047   1.045   1.035   1.084   1.087   1.039   1.054   1.100   1.140   1.170   1.206   1.217
    78.27    1.197   1.199   1.175   1.167   1.112   1.098   1.125   1.059   1.091   1.071   1.079   1.061   1.085   1.095   1.108   1.094   1.104   1.093   1.070   1.075   1.052   1.064   1.087   1.074   1.058   1.081   1.148   1.151   1.174   1.213   1.235
    73.60    1.171   1.158   1.211   1.217   1.117   1.098   1.107   1.128   1.095   1.073   1.097   1.105   1.091   1.074   1.103   1.094   1.091   1.060   1.068   1.088   1.078   1.075   1.105   1.100   1.076   1.091   1.154   1.157   1.164   1.206   1.235
    68.93    1.183   1.221   1.174   1.176   1.116   1.121   1.046   1.130   1.137   1.095   1.139   1.114   1.115   1.081   1.084   1.070   1.082   1.067   1.086   1.079   1.096   1.107   1.118   1.136   1.144   1.090   1.139   1.155   1.203   1.203   1.230
    64.27    1.201   1.212   1.168   1.117   1.111   1.125   1.116   1.127   1.172   1.118   1.104   1.136   1.114   1.071   1.079   1.098   1.096   1.112   1.078   1.084   1.127   1.146   1.108   1.068   1.109   1.128   1.130   1.193   1.172   1.215   1.222
    59.60    1.193   1.180   1.129   1.117   1.118   1.119   1.087   1.124   1.175   1.131   1.130   1.155   1.107   1.097   1.113   1.123   1.127   1.109   1.113   1.098   1.116   1.141   1.152   1.138   1.097   1.140   1.137   1.174   1.246   1.230   1.261
    54.93    1.177   1.200   1.164   1.115   1.082   1.122   1.086   1.129   1.125   1.115   1.117   1.098   1.076   1.077   1.112   1.121   1.111   1.085   1.110   1.106   1.128   1.133   1.156   1.120   1.118   1.113   1.099   1.164   1.168   1.188   1.241
    50.27    1.132   1.162   1.148   1.094   1.061   1.081   1.067   1.087   1.082   1.120   1.057   1.087   1.078   1.065   1.127   1.134   1.117   1.074   1.087   1.076   1.091   1.122   1.114   1.121   1.117   1.106   1.124   1.112   1.172   1.177   1.202
    45.60    1.155   1.112   1.115   1.088   1.074   1.077   1.091   1.069   1.064   1.070   1.073   1.079   1.042   1.073   1.114   1.151   1.115   1.081   1.070   1.071   1.073   1.109   1.090   1.133   1.106   1.125   1.111   1.155   1.178   1.206   1.178
    40.93    1.128   1.110   1.082   1.090   1.123   1.110   1.145   1.075   1.120   1.105   1.076   1.088   1.086   1.078   1.134   1.112   1.129   1.054   1.042   1.070   1.100   1.119   1.126   1.118   1.096   1.088   1.137   1.125   1.143   1.171   1.213
    36.27    1.136   1.145   1.117   1.122   1.070   1.093   1.155   1.119   1.141   1.084   1.118   1.115   1.113   1.115   1.144   1.099   1.089   1.091   1.059   1.092   1.051   1.111   1.125   1.116   1.102   1.086   1.166   1.183   1.183   1.157   1.172
    31.60    1.140   1.135   1.139   1.086   1.097   1.097   1.131   1.114   1.137   1.135   1.166   1.166   1.173   1.139   1.155   1.132   1.128   1.112   1.057   1.099   1.121   1.106   1.114   1.142   1.120   1.098   1.133   1.205   1.200   1.195   1.191
    26.93    1.146   1.130   1.124   1.148   1.127   1.157   1.159   1.154   1.180   1.180   1.193   1.201   1.159   1.174   1.135   1.111   1.138   1.127   1.123   1.117   1.149   1.156   1.160   1.141   1.158   1.139   1.128   1.161   1.195   1.224   1.195
    22.27    1.163   1.143   1.140   1.173   1.166   1.157   1.196   1.193   1.184   1.205   1.197   1.180   1.122   1.112   1.129   1.136   1.129   1.116   1.174   1.152   1.142   1.199   1.184   1.199   1.196   1.168   1.169   1.173   1.192   1.218   1.201
    17.60    1.164   1.149   1.186   1.183   1.197   1.172   1.199   1.156   1.179   1.148   1.157   1.167   1.119   1.140   1.158   1.175   1.141   1.163   1.156   1.164   1.179   1.209   1.204   1.190   1.176   1.174   1.161   1.185   1.191   1.177   1.199

   Height   Standard deviation at grid points for the w component:
   157.60    0.997   0.987   1.015   0.997   1.024   0.994   0.970   0.982   0.979   0.978   0.922   0.945   0.926   0.938   0.968   0.937   0.976   0.939   0.944   0.959   0.951   0.957   0.964   0.967   0.949   0.964   0.946   0.921   0.923   0.914   0.902
   152.93    0.987   0.976   0.967   0.964   0.990   0.984   0.974   0.993   0.954   0.959   0.934   0.910   0.937   0.948   0.954   0.925   0.928   0.939   0.936   0.955   0.931   0.943   0.939   0.950   0.931   0.888   0.923   0.891   0.893   0.913   0.906
   148.27    0.984   0.955   0.967   0.965   0.965   0.960   0.970   0.990   0.983   0.955   0.934   0.942   0.953   0.981   0.949   0.920   0.892   0.874   0.916   0.922   0.907   0.921   0.948   0.934   0.916   0.903   0.920   0.905   0.892   0.913   0.898
   143.60    0.955   0.957   0.952   0.973   0.952   0.988   0.969   0.983   0.983   0.962   0.978   0.938   0.973   0.990   0.949   0.953   0.938   0.919   0.914   0.902   0.897   0.942   0.927   0.928   0.898   0.909   0.923   0.910   0.899   0.898   0.868
   138.93    0.961   0.949   0.937   0.964   0.954   1.004   1.011   1.023   1.022   0.999   0.996   0.976   0.948   0.976   0.978   0.980   0.995   0.967   0.921   0.917   0.886   0.908   0.908   0.889   0.883   0.874   0.885   0.894   0.863   0.874   0.856
   134.27    0.942   0.977   0.982   0.982   0.989   0.995   0.994   1.029   1.051   1.006   1.013   1.022   0.982   0.959   0.997   1.011   0.966   0.988   0.957   0.938   0.906   0.913   0.862   0.902   0.899   0.882   0.886   0.878   0.864   0.877   0.870
   129.60    0.975   0.995   1.001   1.002   0.985   1.024   1.032   0.996   1.053   1.046   0.995   0.995   0.982   0.940   0.943   0.989   0.982   1.013   0.973   0.974   0.933   0.882   0.887   0.897   0.913   0.889   0.847   0.882   0.897   0.888   0.900
   124.93    0.962   0.994   0.990   0.973   0.978   0.984   1.018   1.003   1.031   1.024   1.013   0.989   0.961   0.969   0.964   1.016   1.041   1.018   0.970   0.958   0.945   0.901   0.909   0.914   0.920   0.869   0.859   0.871   0.898   0.878   0.878
   120.27    0.965   0.966   0.968   0.978   0.988   0.976   0.989   0.983   0.979   1.008   0.996   0.980   0.954   0.975   0.967   1.008   1.045   1.012   0.966   0.967   0.934   0.914   0.928   0.920   0.908   0.903   0.872   0.849   0.855   0.871   0.876
   115.60    0.933   0.963   0.951   0.942   0.991   0.992   0.954   0.964   0.973   0.983   0.976   0.965   0.934   0.978   0.967   1.011   1.022   0.983   0.984   0.975   0.940   0.961   0.958   0.932   0.880   0.878   0.892   0.882   0.898   0.882   0.877
   110.93    0.956   0.922   0.968   0.966   0.983   0.962   0.987   0.980   1.002   1.008   1.015   0.984   0.974   0.992   0.981   0.988   0.980   0.954   0.954   0.923   0.930   0.909   0.908   0.962   0.941   0.909   0.927   0.907   0.886   0.893   0.912
   106.27    0.930   0.957   0.963   0.962   0.956   0.964   0.983   0.978   0.991   1.006   1.005   0.995   0.992   1.014   1.023   1.019   0.997   0.992   0.940   0.918   0.927   0.909   0.905   0.904   0.949   0.951   0.935   0.894   0.881   0.884   0.884
   101.60    0.970   0.957   0.961   0.970   0.969   0.942   0.951   0.946   0.997   0.983   1.001   0.962   0.966   0.980   1.004   1.006   0.995   0.999   0.973   0.961   0.910   0.891   0.917   0.927   0.931   0.950   0.938   0.881   0.861   0.878   0.889
    96.93    0.956   0.984   0.947   0.969   0.976   0.954   0.946   0.976   0.979   0.969   0.960   0.987   0.963   0.981   0.980   1.006   1.011   0.998   0.956   0.945   0.919   0.903   0.920   0.941   0.922   0.930   0.927   0.893   0.867   0.888   0.894
    92.27    0.964   0.942   0.960   0.946   0.981   0.934   0.942   0.940   0.980   0.938   0.966   0.995   0.966   0.985   0.993   0.978   0.981   1.005   0.969   0.952   0.929   0.927   0.929   0.973   0.962   0.922   0.892   0.879   0.879   0.888   0.885
    87.60    0.973   0.939   0.926   0.939   0.945   0.953   0.978   0.969   0.953   0.956   0.939   0.959   0.933   0.976   0.992   0.932   0.950   0.955   0.926   0.935   0.925   0.961   0.953   0.945   0.909   0.886   0.859   0.866   0.863   0.885   0.925
    82.93    0.953   0.934   0.936   0.940   0.956   0.971   0.988   0.952   0.956   0.940   0.899   0.921   0.915   0.974   0.955   0.918   0.932   0.890   0.915   0.926   0.927   0.955   0.978   0.932   0.920   0.886   0.864   0.875   0.868   0.886   0.909
    78.27    0.921   0.963   0.946   0.959   0.966   0.990   0.978   0.966   0.958   0.951   0.928   0.907   0.928   0.952   0.965   0.921   0.912   0.908   0.910   0.910   0.929   0.941   0.959   0.942   0.952   0.889   0.886   0.875   0.856   0.872   0.913
    73.60    0.935   0.945   0.986   0.958   0.961   0.977   0.947   0.963   0.958   0.944   0.914   0.885   0.921   0.944   0.936   0.939   0.927   0.931   0.902   0.916   0.925   0.930   0.954   0.907   0.917   0.902   0.883   0.866   0.875   0.888   0.889
    68.93    0.975   0.972   0.957   0.950   0.958   0.945   0.955   0.957   0.926   0.922   0.914   0.896   0.912   0.926   0.921   0.931   0.908   0.898   0.914   0.904   0.941   0.941   0.947   0.911   0.910   0.911   0.888   0.889   0.878   0.863   0.905
    64.27    0.960   0.981   0.968   0.953   0.953   0.952   0.957   0.977   0.983   0.929   0.910   0.910   0.924   0.949   0.942   0.927   0.902   0.930   0.928   0.927   0.929   0.958   0.958   0.945   0.947   0.907   0.933   0.898   0.904   0.907   0.894
    59.60    0.964   0.945   0.968   0.964   0.974   0.969   0.969   0.965   0.952   0.908   0.881   0.923   0.953   0.958   0.939   0.933   0.931   0.922   0.913   0.926   0.965   0.959   0.957   0.957   0.957   0.927   0.922   0.927   0.920   0.886   0.908
    54.93    0.957   0.920   0.963   0.927   0.956   0.965   0.958   0.952   0.932   0.921   0.908   0.917   0.941   0.923   0.948   0.947   0.946   0.924   0.918   0.947   0.972   0.992   0.966   0.966   0.918   0.922   0.932   0.903   0.891   0.901   0.923
    50.27    0.967   0.939   0.918   0.918   0.917   0.923   0.937   0.954   0.945   0.939   0.904   0.925   0.920   0.926   0.929   0.961   0.972   0.945   0.944   0.952   0.933   0.948   0.959   0.920   0.931   0.918   0.903   0.920   0.927   0.938   0.851
    45.60    0.919   0.920   0.927   0.925   0.907   0.917   0.892   0.914   0.914   0.922   0.937   0.921   0.907   0.901   0.905   0.917   0.955   0.975   0.975   0.963   0.937   0.917   0.918   0.924   0.914   0.927   0.924   0.909   0.899   0.931   0.923
    40.93    0.927   0.911   0.932   0.927   0.929   0.944   0.923   0.927   0.915   0.947   0.933   0.956   0.924   0.895   0.900   0.920   0.957   0.964   0.945   0.945   0.922   0.945   0.923   0.911   0.922   0.902   0.925   0.920   0.920   0.900   0.923
    36.27    0.922   0.940   0.929   0.935   0.960   0.936   0.923   0.941   0.943   0.930   0.952   0.944   0.937   0.921   0.948   0.943   0.939   0.945   0.943   0.920   0.933   0.922   0.914   0.925   0.909   0.899   0.938   0.899   0.881   0.900   0.895
    31.60    0.907   0.894   0.931   0.938   0.958   0.937   0.921   0.914   0.925   0.932   0.924   0.953   0.946   0.938   0.926   0.923   0.920   0.950   0.912   0.942   0.948   0.925   0.926   0.931   0.918   0.910   0.909   0.901   0.947   0.903   0.899
    26.93    0.918   0.924   0.939   0.922   0.923   0.933   0.936   0.932   0.939   0.923   0.933   0.952   0.940   0.917   0.920   0.925   0.929   0.906   0.923   0.931   0.937   0.941   0.930   0.905   0.925   0.907   0.911   0.934   0.946   0.906   0.905
    22.27    0.920   0.912   0.922   0.940   0.916   0.911   0.923   0.919   0.941   0.937   0.917   0.935   0.934   0.939   0.917   0.932   0.912   0.908   0.920   0.948   0.926   0.914   0.914   0.924   0.895   0.907   0.909   0.933   0.955   0.897   0.917
    17.60    0.913   0.905   0.918   0.908   0.915   0.908   0.916   0.914   0.920   0.927   0.921   0.933   0.921   0.918   0.918   0.918   0.921   0.921   0.920   0.902   0.907   0.913   0.899   0.910   0.928   0.924   0.904   0.926   0.931   0.891   0.893

   Mean standard deviation across all grid points:
      u component:    1.626 m/s
      v component:    1.101 m/s
      w component:    0.939 m/s


U-component (X) statistics from the hub grid point:

   Mean =  13.9460 m/s
   TI   =  12.4405 %

Nyquist frequency of turbulent wind field =        10.000 Hz


Processing complete.  322.58 CPU seconds used.
