
This summary file was generated by TurbSim (v1.06.00, 21-Sep-2012) on 11-Sep-2020 at 11:04:14.


Runtime Options:

  65432154  Random seed #1
    RANLUX  Type of random number generator
         F  Output binary HH turbulence parameters?
         F  Output formatted turbulence parameters?
         F  Output AeroDyn HH files?
         T  Output AeroDyn FF files?
         F  Output BLADED FF files?
         T  Output tower data?
         F  Output formatted FF files?
         F  Output coherent turbulence time step file?
         T  Clockwise rotation when looking downwind?
 0 -  NONE  IEC turbulence models scaled to exact specified standard deviation


Turbine/Model Specifications:

        33  Vertical grid-point matrix dimension
        33  Horizontal grid-point matrix dimension
     0.050  Time step [seconds]
    70.000  Analysis time [seconds]
    70.000  Usable output time [seconds]
    87.600  Hub height [m]
   130.000  Grid height [m]
   130.000  Grid width [m]
     0.000  Vertical flow angle [degrees]
     0.000  Horizontal flow angle [degrees]


Meteorological Boundary Conditions:

    SMOOTH  RISO Smooth Terrain spectral model
       N/A  IEC standard
       N/A  IEC turbulence characteristic
       N/A  IEC turbulence type
       N/A  IEC Extreme Turbulence Model (ETM) "c" parameter [m/s]
       IEC  Wind profile type
    87.600  Reference height [m]
    10.000  Reference wind speed [m/s]
       N/A  Jet height [m]
     0.143  Power law exponent
     0.010  Surface roughness length [m]


Non-IEC Meteorological Boundary Conditions:

    45.000  Site latitude [degrees]
     0.050  Gradient Richardson number
     0.425  Friction or shear velocity [m/s]
       N/A  Mixing layer depth [m]
    -0.181  Mean hub u'w' Reynolds stress
       N/A  Mean hub u'v' Reynolds stress
       N/A  Mean hub v'w' Reynolds stress
(   10.000,  0.00    )  u-component coherence parameters
(    7.500,  0.00    )  v-component coherence parameters
(    7.500,  0.00    )  w-component coherence parameters
     0.000  Coherence exponent


You have requested that the following file(s) be generated:

   unsteady_tmp_10.bts (AeroDyn/TurbSim full-field wind file)


Turbulence Simulation Scaling Parameter Summary:

   Turbulence model used                            =  RISO Smooth Terrain
   Gradient Richardson number                       =    0.050
   Monin-Obukhov (M-O) z/L parameter                =    0.067
   Monin-Obukhov (M-O) length scale                 = 1314.000 m
   Mean wind speed at hub height                    =   10.000 m/s

   Wind profile type                                =  Power law on rotor disk, logarithmic elsewhere
   Power law exponent                               =    0.143
   Mean shear across rotor disk                     =    0.018 (m/s)/m
   Assumed rotor diameter                           =  130.000 m
   Surface roughness length                         =    0.010 m

   Number of time steps in the FFT                  =     1664
   Number of time steps output                      =     1660


Mean Flow Angles:

   Vertical   =   0.0 degrees
   Horizontal =   0.0 degrees

Mean Wind Speed Profile:

   Height    Wind Speed   Horizontal Angle  U-comp (X)   V-comp (Y)   W-comp (Z)
     (m)        (m/s)         (degrees)       (m/s)        (m/s)        (m/s)   
   ------    ----------   ----------------  ----------   ----------   ----------
    152.6       10.61            0.00         10.61         0.00         0.00
    148.5       10.78            0.00         10.78         0.00         0.00
    144.5       10.74            0.00         10.74         0.00         0.00
    140.4       10.70            0.00         10.70         0.00         0.00
    136.4       10.65            0.00         10.65         0.00         0.00
    132.3       10.61            0.00         10.61         0.00         0.00
    128.2       10.56            0.00         10.56         0.00         0.00
    124.2       10.51            0.00         10.51         0.00         0.00
    120.1       10.46            0.00         10.46         0.00         0.00
    116.0       10.41            0.00         10.41         0.00         0.00
    112.0       10.36            0.00         10.36         0.00         0.00
    107.9       10.30            0.00         10.30         0.00         0.00
    103.9       10.25            0.00         10.25         0.00         0.00
     99.8       10.19            0.00         10.19         0.00         0.00
     95.7       10.13            0.00         10.13         0.00         0.00
     91.7       10.07            0.00         10.07         0.00         0.00
     87.6       10.00            0.00         10.00         0.00         0.00
     83.5        9.93            0.00          9.93         0.00         0.00
     79.5        9.86            0.00          9.86         0.00         0.00
     75.4        9.79            0.00          9.79         0.00         0.00
     71.4        9.71            0.00          9.71         0.00         0.00
     67.3        9.63            0.00          9.63         0.00         0.00
     63.2        9.54            0.00          9.54         0.00         0.00
     59.2        9.45            0.00          9.45         0.00         0.00
     55.1        9.36            0.00          9.36         0.00         0.00
     51.0        9.26            0.00          9.26         0.00         0.00
     47.0        9.15            0.00          9.15         0.00         0.00
     42.9        9.03            0.00          9.03         0.00         0.00
     38.9        8.90            0.00          8.90         0.00         0.00
     34.8        8.76            0.00          8.76         0.00         0.00
     30.7        8.61            0.00          8.61         0.00         0.00
     26.7        8.44            0.00          8.44         0.00         0.00
     22.6        8.24            0.00          8.24         0.00         0.00
     18.5        8.29            0.00          8.29         0.00         0.00
     14.5        8.02            0.00          8.02         0.00         0.00
     10.4        7.65            0.00          7.65         0.00         0.00
      6.4        7.11            0.00          7.11         0.00         0.00
      2.3        5.98            0.00          5.98         0.00         0.00


Harvested Random Seeds after Generation of the Random Numbers:

     25372048 K1
            0 K2


Scaling statistics from the hub grid point:

   Cross-Component  Scaling Factor
   ---------------  --------------
   u'w'               -0.20757E+00
   u'v'                0.00000E+00
   v'w'                0.00000E+00


Hub-Height Simulated Turbulence Statistical Summary:

   Type of Wind        Min (m/s)   Mean (m/s)    Max (m/s)  Sigma (m/s)       TI (%)
   ----------------    ---------   ----------    ---------  -----------       ------
   Longitudinal (u)         7.95        10.00        11.57        0.633        6.333
   Lateral (v)             -2.27         0.00         1.50        0.580        5.797
   Vertical (w)            -2.05         0.00         1.63        0.600        6.002
   U component              7.95        10.00        11.57        0.633        6.333
   V component             -2.27         0.00         1.50        0.580        5.797
   W component             -2.05         0.00         1.63        0.600        6.002
   Horizontal (U&V)         7.95        10.02        11.57        0.631        6.303
   Total                    8.08        10.03        11.58        0.630        6.281

                       Min Reynolds     Mean Reynolds    Max Reynolds    Correlation
   Product             Stress (m/s)^2   Stress (m/s)^2   Stress (m/s)^2  Coefficient
   ----------------    --------------   --------------   --------------  -----------
   u'w'                     -2.934            -0.181             1.379        -0.475
   u'v'                     -1.524             0.036             2.750         0.099
   v'w'                     -2.575            -0.033             1.223        -0.094


   Friction Velocity (Ustar)  =      0.425 m/s
   Maximum Instantaneous TKE  =      3.658 (m/s)^2
   Maximum Instantaneous CTKE =      2.088 (m/s)^2


Grid Point Variance Summary:

   Y-coord  -65.00  -60.94  -56.88  -52.81  -48.75  -44.69  -40.62  -36.56  -32.50  -28.44  -24.38  -20.31  -16.25  -12.19   -8.12   -4.06    0.00    4.06    8.12   12.19   16.25   20.31   24.38   28.44   32.50   36.56   40.62   44.69   48.75   52.81   56.88   60.94   65.00

   Height   Standard deviation at grid points for the u component:
   152.60    0.877   0.962   0.774   0.730   0.750   0.898   0.812   1.000   0.941   0.861   0.778   0.792   0.636   0.666   0.672   0.599   0.483   0.594   0.650   0.476   0.471   0.512   0.592   0.499   0.553   0.631   0.574   0.627   0.710   0.685   0.738   0.808   0.774
   148.54    0.912   0.914   0.794   0.820   0.917   0.968   0.949   1.017   0.964   1.036   1.003   0.939   0.776   0.582   0.722   0.589   0.534   0.565   0.607   0.607   0.543   0.548   0.536   0.615   0.663   0.677   0.755   0.750   0.621   0.619   0.679   0.776   0.847
   144.48    0.765   0.834   0.847   0.935   0.849   0.919   0.962   0.954   0.947   0.908   0.837   0.784   0.781   0.699   0.694   0.634   0.519   0.583   0.560   0.659   0.652   0.719   0.596   0.556   0.618   0.661   0.595   0.670   0.653   0.637   0.647   0.796   0.799
   140.41    0.843   0.733   0.814   0.937   0.901   0.943   0.957   0.896   0.956   0.866   0.800   0.827   0.822   0.754   0.769   0.695   0.552   0.513   0.615   0.682   0.585   0.637   0.787   0.681   0.771   0.772   0.603   0.572   0.696   0.759   0.876   0.813   0.894
   136.35    0.896   0.918   0.722   0.909   0.877   0.874   0.964   1.024   0.989   0.866   0.965   0.844   0.798   0.791   0.771   0.697   0.652   0.577   0.695   0.623   0.668   0.736   0.791   0.719   0.758   0.787   0.706   0.721   0.747   0.806   0.882   0.860   0.974
   132.29    0.863   0.788   0.772   0.789   0.953   0.910   0.868   0.919   1.081   0.908   0.818   0.857   0.710   0.794   0.771   0.730   0.673   0.716   0.648   0.612   0.688   0.626   0.579   0.747   0.737   0.784   0.765   0.712   0.852   0.807   0.870   0.889   0.993
   128.23    0.938   0.825   0.825   0.975   0.982   1.007   1.069   1.084   1.089   0.991   0.891   0.875   0.744   0.771   0.789   0.733   0.692   0.574   0.690   0.663   0.644   0.612   0.625   0.678   0.863   0.870   0.869   0.801   0.821   0.913   1.025   1.049   1.090
   124.16    0.955   0.851   0.891   0.842   0.889   0.987   0.963   1.075   1.016   0.806   0.847   0.807   0.774   0.807   0.703   0.733   0.808   0.719   0.628   0.752   0.751   0.728   0.774   0.660   0.821   0.925   1.014   0.864   0.828   0.877   1.055   0.863   0.984
   120.10    0.935   0.890   0.816   0.853   0.912   0.886   0.854   1.020   0.885   0.781   0.869   0.812   0.773   0.759   0.850   0.776   0.921   0.882   0.804   0.812   0.834   0.761   0.742   0.712   0.791   0.823   0.835   0.840   0.883   1.031   1.081   0.985   0.967
   116.04    0.814   0.787   0.752   0.851   0.943   0.784   0.780   0.973   0.961   0.879   0.804   0.837   0.727   0.791   0.823   0.812   0.813   0.918   0.925   0.710   0.787   0.817   0.762   0.769   0.747   0.612   0.683   0.820   0.922   0.848   0.972   0.985   0.989
   111.98    0.914   0.779   0.856   0.858   0.781   0.679   0.785   0.824   0.839   0.823   0.823   0.801   0.663   0.786   0.681   0.759   0.710   0.696   0.802   0.775   0.681   0.761   0.705   0.704   0.754   0.653   0.725   0.744   0.920   0.920   0.986   0.838   0.858
   107.91    0.946   0.936   0.828   0.744   0.724   0.673   0.750   0.761   0.676   0.692   0.721   0.818   0.725   0.737   0.714   0.728   0.754   0.779   0.746   0.704   0.734   0.733   0.890   0.796   0.709   0.727   0.795   0.714   0.851   0.935   0.912   0.937   0.934
   103.85    1.002   0.958   0.741   0.838   0.694   0.768   0.800   0.650   0.715   0.678   0.648   0.680   0.674   0.717   0.717   0.754   0.658   0.650   0.742   0.724   0.848   0.910   0.850   0.735   0.639   0.599   0.680   0.767   0.848   0.880   0.816   0.900   0.880
    99.79    0.898   0.948   0.899   0.869   0.917   0.792   0.725   0.619   0.609   0.537   0.638   0.589   0.813   0.670   0.657   0.649   0.761   0.736   0.804   0.867   0.887   0.892   0.754   0.659   0.647   0.567   0.538   0.566   0.777   0.797   0.760   0.781   0.652
    95.73    0.996   0.887   0.933   1.065   0.779   0.863   0.814   0.674   0.552   0.576   0.580   0.689   0.810   0.797   0.761   0.687   0.870   0.757   0.698   0.779   0.795   0.794   0.766   0.654   0.646   0.676   0.672   0.646   0.709   0.763   0.697   0.645   0.618
    91.66    0.800   0.917   0.983   0.968   0.852   0.798   0.791   0.793   0.657   0.628   0.604   0.678   0.707   0.652   0.701   0.732   0.736   0.748   0.772   0.781   0.847   0.749   0.584   0.577   0.680   0.693   0.569   0.608   0.708   0.635   0.638   0.630   0.716
    87.60    0.754   0.805   0.938   0.800   0.808   0.847   0.783   0.775   0.688   0.672   0.727   0.656   0.548   0.617   0.653   0.621   0.633   0.581   0.655   0.665   0.715   0.711   0.595   0.689   0.726   0.639   0.691   0.648   0.622   0.596   0.596   0.524   0.595
    83.54    0.648   0.779   0.825   0.794   0.766   0.735   0.529   0.654   0.728   0.704   0.713   0.809   0.740   0.605   0.639   0.692   0.551   0.533   0.651   0.598   0.648   0.657   0.727   0.641   0.775   0.721   0.639   0.728   0.617   0.569   0.521   0.612   0.569
    79.48    0.723   0.724   0.802   0.744   0.701   0.788   0.656   0.602   0.645   0.635   0.651   0.790   0.763   0.687   0.570   0.668   0.533   0.624   0.668   0.748   0.622   0.711   0.758   0.680   0.602   0.689   0.745   0.643   0.618   0.539   0.584   0.625   0.565
    75.41    0.742   0.784   0.846   0.699   0.722   0.818   0.771   0.590   0.667   0.612   0.642   0.592   0.726   0.676   0.567   0.608   0.545   0.612   0.762   0.807   0.689   0.685   0.761   0.754   0.703   0.534   0.599   0.593   0.626   0.648   0.589   0.633   0.663
    71.35    0.809   0.808   0.821   0.888   0.821   0.920   0.773   0.747   0.669   0.693   0.655   0.569   0.708   0.641   0.566   0.623   0.609   0.680   0.816   0.799   0.652   0.613   0.677   0.671   0.554   0.599   0.603   0.663   0.724   0.555   0.575   0.658   0.696
    67.29    0.751   0.978   0.871   0.946   1.071   1.093   0.933   0.771   0.666   0.723   0.746   0.875   0.758   0.708   0.643   0.775   0.728   0.768   0.748   0.757   0.675   0.627   0.591   0.675   0.682   0.652   0.660   0.620   0.617   0.599   0.534   0.585   0.638
    63.23    0.807   0.893   0.770   0.939   1.080   1.052   0.926   0.889   0.713   0.869   0.938   0.920   0.908   0.762   0.725   0.734   0.789   0.801   0.704   0.780   0.801   0.629   0.637   0.666   0.660   0.739   0.628   0.605   0.650   0.610   0.627   0.567   0.612
    59.16    0.895   0.842   0.825   0.741   0.897   0.991   1.033   0.847   0.815   0.893   1.029   0.992   0.835   0.704   0.716   0.890   0.948   1.064   0.905   0.812   0.819   0.793   0.835   0.760   0.755   0.699   0.674   0.613   0.638   0.698   0.585   0.637   0.592
    55.10    0.908   0.903   0.818   0.867   0.903   1.073   0.971   0.736   0.872   0.901   0.969   0.901   0.888   0.736   0.782   0.812   0.853   0.939   0.908   0.844   0.777   0.863   0.818   0.862   0.841   0.815   0.775   0.734   0.773   0.774   0.541   0.628   0.788
    51.04    0.825   0.848   0.860   1.026   1.074   1.152   0.987   0.822   0.794   0.796   0.889   0.893   0.810   0.715   0.759   0.871   0.789   0.751   0.764   0.854   0.880   0.874   0.795   0.768   0.730   0.775   0.682   0.615   0.804   0.718   0.684   0.667   0.793
    46.98    0.900   0.924   0.945   0.964   1.124   1.122   1.022   0.905   0.840   0.850   0.691   0.749   0.811   0.678   0.720   0.781   0.769   0.846   0.741   0.851   0.810   0.781   0.762   0.775   0.697   0.663   0.584   0.635   0.727   0.765   0.742   0.715   0.683
    42.91    0.871   0.992   1.144   1.104   1.121   0.991   0.962   0.978   0.847   0.805   0.715   0.809   0.802   0.606   0.688   0.687   0.729   0.730   0.799   0.854   0.812   0.683   0.740   0.744   0.685   0.787   0.732   0.660   0.676   0.689   0.703   0.690   0.593
    38.85    0.864   1.013   1.024   0.986   0.964   0.984   0.972   0.979   0.852   0.857   0.814   0.621   0.675   0.630   0.700   0.713   0.718   0.780   0.833   0.934   0.871   0.808   0.713   0.722   0.704   0.700   0.708   0.790   0.781   0.729   0.713   0.633   0.693
    34.79    0.823   0.979   1.028   1.061   1.018   0.990   0.879   0.952   0.900   0.779   0.735   0.718   0.726   0.682   0.641   0.727   0.686   0.719   0.694   0.878   0.770   0.724   0.731   0.752   0.810   0.757   0.657   0.881   0.828   0.805   0.789   0.681   0.693
    30.73    0.988   0.904   1.098   1.011   1.106   0.964   1.084   0.960   0.907   0.778   0.671   0.724   0.667   0.581   0.678   0.777   0.777   0.622   0.693   0.862   0.851   0.716   0.828   0.767   0.875   0.820   0.956   0.955   0.852   0.737   0.778   0.738   0.781
    26.66    0.902   0.905   1.096   1.015   1.066   0.982   1.102   0.998   0.812   0.740   0.735   0.757   0.730   0.659   0.694   0.825   0.810   0.811   0.863   0.887   0.776   0.859   0.980   1.024   0.969   0.835   0.961   1.018   0.890   0.836   0.939   0.845   1.022
    22.60    1.006   0.995   1.129   1.200   1.021   1.003   1.032   1.026   0.887   0.867   0.903   0.817   0.736   0.748   0.943   0.882   0.899   0.898   0.950   0.884   0.733   0.840   0.957   1.037   0.927   0.857   0.937   1.037   0.954   0.887   0.905   0.949   1.045

   Height   Standard deviation at grid points for the v component:
   152.60    0.766   0.818   0.787   0.667   0.700   0.813   0.797   0.801   0.761   0.682   0.688   0.665   0.709   0.776   0.752   0.694   0.731   0.746   0.767   0.688   0.636   0.684   0.643   0.753   0.785   0.803   0.841   0.853   0.914   0.765   0.838   0.916   0.881
   148.54    0.750   0.749   0.725   0.686   0.760   0.783   0.667   0.754   0.739   0.627   0.586   0.591   0.670   0.747   0.666   0.660   0.637   0.655   0.728   0.680   0.669   0.756   0.720   0.738   0.785   0.797   0.904   0.894   0.896   0.810   0.895   0.971   0.936
   144.48    0.659   0.714   0.662   0.645   0.679   0.761   0.781   0.740   0.644   0.643   0.597   0.604   0.645   0.628   0.623   0.617   0.607   0.601   0.761   0.748   0.836   0.678   0.701   0.729   0.730   0.825   0.819   0.862   0.766   0.878   0.947   0.979   1.005
   140.41    0.700   0.689   0.583   0.561   0.578   0.644   0.650   0.681   0.587   0.586   0.612   0.587   0.599   0.562   0.575   0.623   0.661   0.713   0.845   0.816   0.836   0.760   0.778   0.743   0.764   0.855   0.852   0.811   0.725   0.873   0.893   1.006   1.010
   136.35    0.664   0.613   0.624   0.631   0.584   0.609   0.579   0.606   0.607   0.570   0.485   0.582   0.618   0.538   0.594   0.617   0.650   0.695   0.755   0.675   0.782   0.802   0.828   0.845   0.784   0.820   0.827   0.797   0.884   0.793   0.913   0.912   0.935
   132.29    0.647   0.573   0.596   0.607   0.573   0.591   0.629   0.603   0.602   0.550   0.530   0.615   0.687   0.562   0.647   0.615   0.639   0.682   0.733   0.759   0.748   0.773   0.843   0.868   0.884   0.920   0.874   0.828   0.859   0.845   0.755   0.893   0.889
   128.23    0.680   0.568   0.589   0.653   0.593   0.575   0.589   0.520   0.533   0.631   0.552   0.663   0.707   0.596   0.661   0.674   0.744   0.678   0.728   0.863   0.807   0.760   0.857   0.818   0.864   0.893   0.856   0.855   0.822   0.692   0.806   0.842   0.894
   124.16    0.604   0.575   0.560   0.656   0.669   0.547   0.544   0.542   0.568   0.583   0.606   0.565   0.656   0.687   0.712   0.699   0.770   0.742   0.814   0.820   0.785   0.762   0.838   0.824   0.821   0.858   0.855   0.734   0.845   0.753   0.736   0.752   0.829
   120.10    0.589   0.573   0.656   0.684   0.648   0.630   0.465   0.533   0.509   0.549   0.575   0.554   0.659   0.648   0.614   0.684   0.723   0.701   0.757   0.812   0.729   0.815   0.829   0.844   0.870   0.812   0.842   0.785   0.801   0.730   0.687   0.668   0.811
   116.04    0.685   0.666   0.592   0.635   0.622   0.522   0.481   0.476   0.528   0.559   0.612   0.606   0.567   0.593   0.627   0.690   0.703   0.810   0.765   0.864   0.824   0.796   0.827   0.803   0.784   0.689   0.712   0.678   0.701   0.710   0.807   0.789   0.834
   111.98    0.713   0.527   0.600   0.589   0.587   0.591   0.462   0.426   0.512   0.628   0.585   0.519   0.520   0.574   0.613   0.602   0.695   0.802   0.765   0.872   0.816   0.808   0.759   0.762   0.740   0.676   0.695   0.701   0.667   0.684   0.819   0.868   0.934
   107.91    0.835   0.670   0.645   0.544   0.566   0.602   0.513   0.513   0.515   0.589   0.545   0.495   0.530   0.575   0.551   0.597   0.659   0.779   0.840   0.840   0.836   0.784   0.736   0.756   0.722   0.689   0.751   0.703   0.769   0.704   0.729   0.801   0.839
   103.85    0.831   0.717   0.609   0.559   0.515   0.517   0.568   0.637   0.524   0.539   0.604   0.577   0.678   0.601   0.600   0.569   0.702   0.772   0.809   0.843   0.754   0.783   0.794   0.717   0.683   0.747   0.770   0.746   0.799   0.762   0.785   0.798   0.681
    99.79    0.764   0.751   0.600   0.609   0.562   0.577   0.583   0.673   0.566   0.556   0.641   0.631   0.627   0.598   0.622   0.599   0.662   0.730   0.733   0.742   0.710   0.775   0.794   0.700   0.727   0.682   0.758   0.638   0.782   0.787   0.758   0.644   0.608
    95.73    0.750   0.699   0.646   0.616   0.560   0.554   0.598   0.586   0.603   0.628   0.594   0.634   0.604   0.605   0.584   0.498   0.572   0.628   0.599   0.642   0.685   0.668   0.727   0.701   0.644   0.754   0.691   0.705   0.733   0.790   0.661   0.610   0.581
    91.66    0.779   0.749   0.631   0.605   0.642   0.558   0.634   0.622   0.620   0.587   0.510   0.564   0.601   0.549   0.513   0.570   0.595   0.563   0.568   0.549   0.568   0.584   0.669   0.693   0.717   0.732   0.660   0.677   0.683   0.702   0.643   0.571   0.586
    87.60    0.690   0.707   0.652   0.656   0.636   0.574   0.601   0.597   0.578   0.526   0.514   0.505   0.569   0.621   0.593   0.540   0.580   0.581   0.528   0.484   0.540   0.561   0.649   0.711   0.646   0.738   0.672   0.707   0.669   0.627   0.675   0.632   0.600
    83.54    0.664   0.747   0.770   0.683   0.624   0.630   0.553   0.472   0.540   0.535   0.536   0.571   0.635   0.674   0.584   0.616   0.655   0.570   0.535   0.520   0.564   0.599   0.640   0.727   0.702   0.704   0.769   0.704   0.791   0.746   0.670   0.633   0.662
    79.48    0.740   0.711   0.668   0.664   0.710   0.585   0.541   0.537   0.528   0.589   0.604   0.696   0.717   0.672   0.681   0.620   0.630   0.668   0.652   0.601   0.625   0.595   0.712   0.729   0.694   0.752   0.686   0.818   0.789   0.705   0.698   0.684   0.742
    75.41    0.839   0.873   0.651   0.696   0.715   0.583   0.600   0.606   0.568   0.625   0.598   0.754   0.680   0.725   0.693   0.650   0.623   0.613   0.682   0.636   0.624   0.601   0.701   0.781   0.752   0.794   0.723   0.822   0.770   0.784   0.787   0.792   0.760
    71.35    0.864   0.850   0.793   0.846   0.837   0.737   0.648   0.722   0.732   0.691   0.722   0.768   0.666   0.681   0.644   0.644   0.623   0.609   0.708   0.684   0.632   0.683   0.696   0.810   0.767   0.769   0.861   0.873   0.901   0.826   0.715   0.758   0.715
    67.29    0.789   0.899   0.906   0.838   0.804   0.704   0.605   0.681   0.704   0.668   0.688   0.676   0.714   0.630   0.590   0.597   0.684   0.777   0.729   0.687   0.698   0.704   0.695   0.744   0.760   0.828   0.858   0.830   0.909   0.795   0.826   0.874   0.727
    63.23    0.948   0.931   0.916   0.877   0.798   0.788   0.720   0.713   0.601   0.657   0.689   0.628   0.774   0.775   0.681   0.722   0.746   0.726   0.690   0.694   0.715   0.674   0.706   0.772   0.785   0.778   0.772   0.747   0.852   0.844   0.828   0.771   0.747
    59.16    0.919   0.898   0.868   0.863   0.836   0.862   0.843   0.742   0.689   0.629   0.700   0.691   0.774   0.799   0.706   0.705   0.689   0.678   0.638   0.603   0.623   0.722   0.740   0.715   0.849   0.808   0.799   0.802   0.859   0.850   0.804   0.756   0.829
    55.10    0.868   0.898   0.886   0.925   0.912   0.874   0.877   0.823   0.783   0.683   0.640   0.682   0.736   0.692   0.726   0.657   0.677   0.659   0.608   0.622   0.644   0.636   0.727   0.766   0.759   0.826   0.776   0.825   0.787   0.805   0.871   0.830   0.871
    51.04    0.851   0.862   0.823   0.896   0.898   0.935   0.857   0.822   0.828   0.771   0.692   0.801   0.757   0.708   0.752   0.702   0.665   0.668   0.668   0.749   0.689   0.721   0.685   0.737   0.791   0.768   0.753   0.833   0.821   0.841   0.805   0.791   0.778
    46.98    0.776   0.755   0.787   0.871   0.877   0.843   0.890   0.883   0.748   0.744   0.757   0.809   0.881   0.789   0.805   0.843   0.743   0.690   0.656   0.760   0.780   0.784   0.768   0.790   0.761   0.804   0.772   0.819   0.811   0.785   0.788   0.763   0.708
    42.91    0.809   0.792   0.756   0.774   0.853   0.862   0.892   0.765   0.798   0.783   0.756   0.749   0.815   0.854   0.793   0.812   0.865   0.855   0.796   0.810   0.858   0.763   0.754   0.730   0.764   0.734   0.742   0.838   0.781   0.760   0.843   0.786   0.716
    38.85    0.852   0.817   0.761   0.752   0.785   0.877   0.850   0.865   0.834   0.772   0.707   0.791   0.824   0.775   0.850   0.941   0.917   0.917   0.866   0.821   0.826   0.895   0.828   0.810   0.759   0.747   0.740   0.849   0.868   0.850   0.773   0.821   0.789
    34.79    0.871   0.862   0.780   0.795   0.814   0.881   0.936   0.882   0.794   0.740   0.707   0.796   0.838   0.862   0.965   0.997   0.995   0.932   0.950   0.842   0.847   0.918   0.818   0.820   0.870   0.809   0.732   0.850   0.956   0.894   0.786   0.741   0.814
    30.73    0.808   0.860   1.010   0.967   0.809   0.892   0.911   0.926   0.790   0.785   0.756   0.822   0.860   0.890   0.888   0.904   0.921   0.870   0.923   0.855   0.860   0.830   0.956   0.939   0.932   0.858   0.817   0.902   0.917   0.890   0.817   0.910   0.811
    26.66    0.827   0.875   0.924   0.936   0.930   0.867   0.874   0.911   0.799   0.762   0.813   0.818   0.866   0.965   0.873   0.846   0.815   0.819   0.830   0.905   0.875   0.911   0.935   0.970   0.931   0.970   0.936   0.965   0.989   0.914   0.963   0.914   0.867
    22.60    0.818   0.859   0.906   0.937   0.979   0.824   0.886   0.897   0.861   0.836   0.863   0.903   0.884   0.903   0.869   0.808   0.818   0.799   0.881   0.817   0.779   0.811   0.835   0.913   0.924   0.943   0.988   0.876   0.922   0.907   0.834   0.853   0.853

   Height   Standard deviation at grid points for the w component:
   152.60    0.572   0.466   0.476   0.484   0.524   0.548   0.602   0.569   0.571   0.493   0.465   0.474   0.483   0.491   0.592   0.549   0.541   0.557   0.538   0.637   0.663   0.754   0.635   0.634   0.642   0.620   0.660   0.600   0.566   0.572   0.528   0.518   0.576
   148.54    0.498   0.513   0.566   0.564   0.539   0.564   0.608   0.505   0.509   0.527   0.460   0.487   0.541   0.578   0.603   0.543   0.549   0.633   0.653   0.608   0.703   0.728   0.725   0.656   0.699   0.641   0.611   0.627   0.584   0.557   0.544   0.576   0.599
   144.48    0.480   0.499   0.551   0.544   0.563   0.568   0.578   0.603   0.547   0.555   0.460   0.440   0.544   0.582   0.595   0.634   0.625   0.634   0.679   0.640   0.625   0.710   0.673   0.663   0.661   0.589   0.624   0.587   0.626   0.611   0.597   0.601   0.625
   140.41    0.592   0.598   0.676   0.614   0.577   0.570   0.618   0.599   0.556   0.539   0.500   0.560   0.554   0.565   0.637   0.636   0.575   0.563   0.600   0.597   0.619   0.690   0.726   0.672   0.575   0.588   0.596   0.622   0.647   0.599   0.616   0.673   0.612
   136.35    0.641   0.569   0.648   0.634   0.614   0.602   0.589   0.630   0.574   0.587   0.596   0.522   0.575   0.538   0.608   0.601   0.596   0.522   0.633   0.621   0.622   0.636   0.641   0.620   0.554   0.557   0.562   0.626   0.636   0.606   0.681   0.648   0.648
   132.29    0.659   0.658   0.645   0.612   0.579   0.575   0.624   0.607   0.666   0.646   0.592   0.505   0.575   0.602   0.607   0.671   0.592   0.531   0.523   0.558   0.614   0.597   0.663   0.654   0.676   0.651   0.636   0.648   0.661   0.672   0.656   0.666   0.696
   128.23    0.609   0.657   0.635   0.570   0.583   0.558   0.537   0.599   0.624   0.613   0.596   0.564   0.538   0.574   0.635   0.590   0.555   0.526   0.491   0.521   0.502   0.582   0.697   0.694   0.597   0.644   0.642   0.658   0.628   0.626   0.654   0.642   0.742
   124.16    0.682   0.673   0.611   0.630   0.566   0.547   0.607   0.654   0.679   0.576   0.577   0.591   0.525   0.563   0.612   0.592   0.576   0.544   0.477   0.561   0.528   0.603   0.601   0.661   0.618   0.586   0.553   0.633   0.595   0.665   0.662   0.623   0.713
   120.10    0.698   0.701   0.663   0.603   0.620   0.588   0.606   0.670   0.625   0.622   0.547   0.529   0.544   0.537   0.545   0.562   0.529   0.552   0.557   0.585   0.633   0.591   0.634   0.653   0.589   0.596   0.550   0.516   0.566   0.591   0.683   0.653   0.644
   116.04    0.621   0.665   0.726   0.709   0.649   0.636   0.670   0.724   0.674   0.605   0.553   0.558   0.547   0.534   0.527   0.510   0.585   0.563   0.551   0.573   0.613   0.594   0.657   0.634   0.598   0.577   0.539   0.563   0.576   0.658   0.606   0.617   0.588
   111.98    0.584   0.619   0.693   0.688   0.664   0.641   0.691   0.709   0.643   0.568   0.520   0.524   0.502   0.567   0.546   0.595   0.593   0.603   0.579   0.559   0.678   0.639   0.638   0.656   0.600   0.552   0.577   0.621   0.590   0.581   0.606   0.638   0.656
   107.91    0.595   0.591   0.628   0.710   0.735   0.691   0.682   0.733   0.642   0.611   0.556   0.557   0.523   0.531   0.575   0.657   0.663   0.588   0.613   0.629   0.661   0.652   0.625   0.569   0.658   0.586   0.582   0.601   0.602   0.581   0.580   0.628   0.711
   103.85    0.641   0.632   0.654   0.737   0.770   0.734   0.690   0.744   0.688   0.635   0.588   0.557   0.535   0.535   0.608   0.664   0.657   0.631   0.628   0.604   0.631   0.622   0.603   0.662   0.647   0.644   0.579   0.608   0.630   0.630   0.607   0.637   0.693
    99.79    0.702   0.753   0.777   0.783   0.721   0.716   0.710   0.670   0.703   0.648   0.602   0.536   0.549   0.553   0.580   0.610   0.606   0.533   0.556   0.582   0.575   0.571   0.510   0.654   0.665   0.646   0.691   0.643   0.686   0.647   0.676   0.629   0.699
    95.73    0.703   0.762   0.840   0.739   0.669   0.669   0.729   0.729   0.691   0.656   0.625   0.528   0.566   0.587   0.572   0.581   0.621   0.587   0.526   0.588   0.522   0.559   0.545   0.617   0.649   0.650   0.684   0.709   0.624   0.684   0.640   0.649   0.671
    91.66    0.624   0.672   0.715   0.649   0.628   0.607   0.613   0.725   0.722   0.712   0.656   0.681   0.661   0.628   0.580   0.604   0.551   0.598   0.535   0.594   0.559   0.554   0.611   0.636   0.662   0.626   0.655   0.678   0.725   0.698   0.659   0.651   0.716
    87.60    0.596   0.589   0.621   0.592   0.607   0.527   0.582   0.670   0.675   0.668   0.738   0.705   0.632   0.653   0.623   0.554   0.600   0.612   0.577   0.571   0.553   0.583   0.613   0.656   0.559   0.565   0.598   0.661   0.717   0.652   0.642   0.693   0.698
    83.54    0.591   0.507   0.547   0.508   0.509   0.529   0.591   0.634   0.674   0.659   0.675   0.763   0.662   0.684   0.667   0.585   0.569   0.595   0.649   0.541   0.641   0.615   0.583   0.645   0.570   0.588   0.615   0.628   0.643   0.624   0.670   0.672   0.621
    79.48    0.660   0.601   0.553   0.539   0.532   0.542   0.604   0.619   0.641   0.615   0.641   0.697   0.765   0.744   0.637   0.608   0.598   0.567   0.608   0.651   0.627   0.657   0.625   0.672   0.620   0.604   0.628   0.635   0.678   0.735   0.602   0.665   0.683
    75.41    0.659   0.609   0.611   0.584   0.500   0.556   0.604   0.574   0.577   0.617   0.659   0.672   0.736   0.700   0.677   0.631   0.674   0.609   0.709   0.683   0.695   0.705   0.629   0.620   0.575   0.681   0.617   0.650   0.678   0.654   0.647   0.637   0.655
    71.35    0.719   0.627   0.609   0.619   0.592   0.574   0.636   0.580   0.644   0.658   0.663   0.689   0.725   0.690   0.683   0.637   0.691   0.713   0.723   0.646   0.632   0.601   0.585   0.619   0.638   0.683   0.703   0.635   0.634   0.630   0.695   0.695   0.597
    67.29    0.660   0.640   0.658   0.624   0.695   0.700   0.705   0.622   0.601   0.658   0.613   0.644   0.665   0.677   0.708   0.799   0.775   0.748   0.706   0.684   0.620   0.636   0.615   0.595   0.633   0.634   0.720   0.678   0.590   0.672   0.730   0.687   0.615
    63.23    0.615   0.681   0.663   0.649   0.664   0.664   0.611   0.622   0.612   0.725   0.701   0.687   0.690   0.667   0.696   0.772   0.739   0.673   0.651   0.637   0.672   0.654   0.577   0.667   0.744   0.706   0.713   0.718   0.734   0.715   0.746   0.704   0.734
    59.16    0.711   0.713   0.775   0.655   0.651   0.615   0.623   0.666   0.619   0.661   0.743   0.756   0.665   0.690   0.660   0.749   0.760   0.642   0.662   0.625   0.641   0.647   0.630   0.587   0.676   0.683   0.688   0.726   0.747   0.786   0.725   0.723   0.735
    55.10    0.691   0.723   0.716   0.694   0.616   0.591   0.570   0.602   0.565   0.613   0.682   0.728   0.729   0.670   0.642   0.690   0.673   0.641   0.644   0.628   0.588   0.621   0.588   0.618   0.651   0.707   0.686   0.741   0.752   0.753   0.772   0.758   0.749
    51.04    0.652   0.659   0.630   0.690   0.676   0.647   0.562   0.624   0.558   0.634   0.623   0.662   0.611   0.626   0.664   0.712   0.717   0.674   0.589   0.597   0.558   0.595   0.525   0.598   0.620   0.725   0.710   0.732   0.681   0.744   0.712   0.716   0.721
    46.98    0.561   0.613   0.611   0.606   0.575   0.634   0.585   0.673   0.665   0.689   0.679   0.591   0.607   0.608   0.662   0.673   0.703   0.643   0.623   0.583   0.614   0.558   0.584   0.594   0.668   0.692   0.711   0.713   0.615   0.730   0.691   0.663   0.678
    42.91    0.550   0.527   0.585   0.639   0.595   0.634   0.602   0.654   0.622   0.650   0.694   0.670   0.619   0.618   0.675   0.626   0.660   0.676   0.564   0.620   0.627   0.637   0.629   0.575   0.623   0.639   0.641   0.681   0.678   0.707   0.717   0.654   0.594
    38.85    0.587   0.550   0.565   0.602   0.584   0.652   0.595   0.597   0.598   0.595   0.631   0.586   0.611   0.642   0.660   0.587   0.576   0.616   0.578   0.644   0.589   0.650   0.647   0.657   0.683   0.644   0.687   0.724   0.652   0.649   0.617   0.642   0.656
    34.79    0.648   0.599   0.585   0.588   0.577   0.621   0.648   0.578   0.595   0.559   0.615   0.633   0.671   0.655   0.602   0.560   0.569   0.574   0.623   0.606   0.609   0.674   0.709   0.657   0.689   0.703   0.756   0.758   0.693   0.619   0.616   0.644   0.658
    30.73    0.644   0.626   0.541   0.591   0.606   0.645   0.633   0.570   0.567   0.530   0.521   0.610   0.656   0.603   0.629   0.609   0.694   0.579   0.558   0.585   0.704   0.682   0.704   0.686   0.681   0.680   0.688   0.709   0.667   0.583   0.604   0.619   0.692
    26.66    0.585   0.595   0.612   0.603   0.649   0.670   0.669   0.606   0.616   0.544   0.554   0.617   0.665   0.642   0.648   0.709   0.673   0.668   0.637   0.626   0.672   0.718   0.715   0.725   0.671   0.672   0.673   0.686   0.665   0.594   0.610   0.647   0.663
    22.60    0.632   0.632   0.633   0.633   0.651   0.668   0.615   0.634   0.608   0.636   0.638   0.621   0.684   0.609   0.652   0.667   0.679   0.701   0.653   0.657   0.663   0.690   0.642   0.697   0.641   0.676   0.654   0.685   0.699   0.620   0.598   0.632   0.624

   Mean standard deviation across all grid points:
      u component:    0.780 m/s
      v component:    0.733 m/s
      w component:    0.629 m/s


U-component (X) statistics from the hub grid point:

   Mean =  10.0000 m/s
   TI   =   6.3335 %

Nyquist frequency of turbulent wind field =        10.000 Hz


Processing complete.  81.891 CPU seconds used.
