
This summary file was generated by TurbSim (v1.06.00, 21-Sep-2012) on 15-Sep-2020 at 15:35:57.


Runtime Options:

  65432154  Random seed #1
    RANLUX  Type of random number generator
         F  Output binary HH turbulence parameters?
         F  Output formatted turbulence parameters?
         F  Output AeroDyn HH files?
         T  Output AeroDyn FF files?
         F  Output BLADED FF files?
         T  Output tower data?
         F  Output formatted FF files?
         F  Output coherent turbulence time step file?
         T  Clockwise rotation when looking downwind?
 0 -  NONE  IEC turbulence models scaled to exact specified standard deviation


Turbine/Model Specifications:

        33  Vertical grid-point matrix dimension
        33  Horizontal grid-point matrix dimension
     0.050  Time step [seconds]
   370.000  Analysis time [seconds]
   370.000  Usable output time [seconds]
    87.600  Hub height [m]
   130.000  Grid height [m]
   130.000  Grid width [m]
     0.000  Vertical flow angle [degrees]
     0.000  Horizontal flow angle [degrees]


Meteorological Boundary Conditions:

    SMOOTH  RISO Smooth Terrain spectral model
       N/A  IEC standard
       N/A  IEC turbulence characteristic
       N/A  IEC turbulence type
       N/A  IEC Extreme Turbulence Model (ETM) "c" parameter [m/s]
       IEC  Wind profile type
    87.600  Reference height [m]
    14.000  Reference wind speed [m/s]
       N/A  Jet height [m]
     0.143  Power law exponent
     0.010  Surface roughness length [m]


Non-IEC Meteorological Boundary Conditions:

    45.000  Site latitude [degrees]
     0.050  Gradient Richardson number
     0.595  Friction or shear velocity [m/s]
       N/A  Mixing layer depth [m]
    -0.354  Mean hub u'w' Reynolds stress
       N/A  Mean hub u'v' Reynolds stress
       N/A  Mean hub v'w' Reynolds stress
(   14.000,  0.00    )  u-component coherence parameters
(   10.500,  0.00    )  v-component coherence parameters
(   10.500,  0.00    )  w-component coherence parameters
     0.000  Coherence exponent


You have requested that the following file(s) be generated:

   unsteady_tmp_14.bts (AeroDyn/TurbSim full-field wind file)


Turbulence Simulation Scaling Parameter Summary:

   Turbulence model used                            =  RISO Smooth Terrain
   Gradient Richardson number                       =    0.050
   Monin-Obukhov (M-O) z/L parameter                =    0.067
   Monin-Obukhov (M-O) length scale                 = 1314.000 m
   Mean wind speed at hub height                    =   14.000 m/s

   Wind profile type                                =  Power law on rotor disk, logarithmic elsewhere
   Power law exponent                               =    0.143
   Mean shear across rotor disk                     =    0.026 (m/s)/m
   Assumed rotor diameter                           =  130.000 m
   Surface roughness length                         =    0.010 m

   Number of time steps in the FFT                  =     7600
   Number of time steps output                      =     7586


Mean Flow Angles:

   Vertical   =   0.0 degrees
   Horizontal =   0.0 degrees

Mean Wind Speed Profile:

   Height    Wind Speed   Horizontal Angle  U-comp (X)   V-comp (Y)   W-comp (Z)
     (m)        (m/s)         (degrees)       (m/s)        (m/s)        (m/s)   
   ------    ----------   ----------------  ----------   ----------   ----------
    152.6       14.86            0.00         14.86         0.00         0.00
    148.5       15.10            0.00         15.10         0.00         0.00
    144.5       15.04            0.00         15.04         0.00         0.00
    140.4       14.98            0.00         14.98         0.00         0.00
    136.4       14.91            0.00         14.91         0.00         0.00
    132.3       14.85            0.00         14.85         0.00         0.00
    128.2       14.78            0.00         14.78         0.00         0.00
    124.2       14.72            0.00         14.72         0.00         0.00
    120.1       14.65            0.00         14.65         0.00         0.00
    116.0       14.57            0.00         14.57         0.00         0.00
    112.0       14.50            0.00         14.50         0.00         0.00
    107.9       14.42            0.00         14.42         0.00         0.00
    103.9       14.34            0.00         14.34         0.00         0.00
     99.8       14.26            0.00         14.26         0.00         0.00
     95.7       14.18            0.00         14.18         0.00         0.00
     91.7       14.09            0.00         14.09         0.00         0.00
     87.6       14.00            0.00         14.00         0.00         0.00
     83.5       13.91            0.00         13.91         0.00         0.00
     79.5       13.81            0.00         13.81         0.00         0.00
     75.4       13.70            0.00         13.70         0.00         0.00
     71.4       13.60            0.00         13.60         0.00         0.00
     67.3       13.48            0.00         13.48         0.00         0.00
     63.2       13.36            0.00         13.36         0.00         0.00
     59.2       13.24            0.00         13.24         0.00         0.00
     55.1       13.10            0.00         13.10         0.00         0.00
     51.0       12.96            0.00         12.96         0.00         0.00
     47.0       12.81            0.00         12.81         0.00         0.00
     42.9       12.64            0.00         12.64         0.00         0.00
     38.9       12.46            0.00         12.46         0.00         0.00
     34.8       12.27            0.00         12.27         0.00         0.00
     30.7       12.05            0.00         12.05         0.00         0.00
     26.7       11.81            0.00         11.81         0.00         0.00
     22.6       11.53            0.00         11.53         0.00         0.00
     18.5       11.60            0.00         11.60         0.00         0.00
     14.5       11.22            0.00         11.22         0.00         0.00
     10.4       10.72            0.00         10.72         0.00         0.00
      6.4        9.95            0.00          9.95         0.00         0.00
      2.3        8.38            0.00          8.38         0.00         0.00


Harvested Random Seeds after Generation of the Random Numbers:

    115881950 K1
            0 K2


Scaling statistics from the hub grid point:

   Cross-Component  Scaling Factor
   ---------------  --------------
   u'w'               -0.41206E-01
   u'v'                0.00000E+00
   v'w'                0.00000E+00


Hub-Height Simulated Turbulence Statistical Summary:

   Type of Wind        Min (m/s)   Mean (m/s)    Max (m/s)  Sigma (m/s)       TI (%)
   ----------------    ---------   ----------    ---------  -----------       ------
   Longitudinal (u)         9.49        14.00        18.33        1.504       10.741
   Lateral (v)             -2.84         0.00         3.64        1.020        7.286
   Vertical (w)            -2.87         0.00         2.98        0.905        6.467
   U component              9.49        14.00        18.33        1.504       10.741
   V component             -2.84         0.00         3.64        1.020        7.286
   W component             -2.87         0.00         2.98        0.905        6.467
   Horizontal (U&V)         9.57        14.04        18.38        1.501       10.694
   Total                    9.58        14.07        18.38        1.498       10.649

                       Min Reynolds     Mean Reynolds    Max Reynolds    Correlation
   Product             Stress (m/s)^2   Stress (m/s)^2   Stress (m/s)^2  Coefficient
   ----------------    --------------   --------------   --------------  -----------
   u'w'                    -11.469            -0.354             4.805        -0.260
   u'v'                     -9.925            -0.035             6.377        -0.023
   v'w'                     -6.017             0.008             5.111         0.009


   Friction Velocity (Ustar)  =      0.595 m/s
   Maximum Instantaneous TKE  =     12.605 (m/s)^2
   Maximum Instantaneous CTKE =      6.473 (m/s)^2


Grid Point Variance Summary:

   Y-coord  -65.00  -60.94  -56.88  -52.81  -48.75  -44.69  -40.62  -36.56  -32.50  -28.44  -24.38  -20.31  -16.25  -12.19   -8.12   -4.06    0.00    4.06    8.12   12.19   16.25   20.31   24.38   28.44   32.50   36.56   40.62   44.69   48.75   52.81   56.88   60.94   65.00

   Height   Standard deviation at grid points for the u component:
   152.60    1.448   1.621   1.515   1.477   1.525   1.460   1.531   1.546   1.559   1.597   1.535   1.506   1.461   1.607   1.649   1.708   1.655   1.548   1.542   1.531   1.602   1.499   1.534   1.470   1.537   1.473   1.535   1.585   1.610   1.432   1.427   1.427   1.460
   148.54    1.581   1.572   1.564   1.463   1.535   1.480   1.480   1.401   1.550   1.593   1.614   1.544   1.561   1.613   1.654   1.626   1.639   1.608   1.536   1.576   1.605   1.549   1.533   1.499   1.433   1.397   1.349   1.526   1.564   1.531   1.457   1.453   1.439
   144.48    1.491   1.401   1.501   1.450   1.405   1.481   1.543   1.556   1.608   1.670   1.612   1.574   1.570   1.642   1.689   1.597   1.481   1.458   1.457   1.485   1.528   1.544   1.468   1.416   1.517   1.514   1.467   1.499   1.597   1.512   1.537   1.442   1.512
   140.41    1.543   1.472   1.433   1.505   1.445   1.446   1.543   1.644   1.684   1.674   1.670   1.603   1.594   1.620   1.584   1.618   1.505   1.449   1.406   1.471   1.424   1.409   1.402   1.439   1.523   1.563   1.520   1.548   1.562   1.508   1.419   1.378   1.479
   136.35    1.467   1.543   1.571   1.509   1.509   1.571   1.554   1.646   1.691   1.703   1.586   1.515   1.535   1.519   1.603   1.618   1.579   1.614   1.540   1.422   1.410   1.415   1.396   1.392   1.453   1.447   1.556   1.604   1.589   1.525   1.508   1.429   1.401
   132.29    1.413   1.475   1.538   1.516   1.544   1.544   1.632   1.570   1.632   1.595   1.529   1.580   1.511   1.502   1.568   1.614   1.592   1.655   1.595   1.535   1.577   1.562   1.477   1.473   1.462   1.535   1.600   1.541   1.628   1.570   1.589   1.462   1.367
   128.23    1.466   1.427   1.536   1.517   1.564   1.594   1.540   1.617   1.632   1.586   1.522   1.577   1.604   1.463   1.570   1.622   1.693   1.632   1.620   1.587   1.541   1.544   1.445   1.396   1.558   1.611   1.562   1.522   1.600   1.507   1.482   1.461   1.365
   124.16    1.546   1.477   1.612   1.632   1.571   1.579   1.522   1.583   1.575   1.590   1.548   1.638   1.605   1.515   1.603   1.672   1.661   1.631   1.544   1.576   1.523   1.454   1.429   1.460   1.606   1.568   1.527   1.422   1.532   1.422   1.350   1.393   1.334
   120.10    1.519   1.525   1.626   1.607   1.602   1.559   1.503   1.528   1.460   1.536   1.519   1.620   1.490   1.574   1.637   1.639   1.608   1.626   1.564   1.522   1.563   1.477   1.416   1.491   1.556   1.565   1.432   1.442   1.440   1.392   1.434   1.388   1.296
   116.04    1.470   1.573   1.567   1.481   1.483   1.536   1.486   1.430   1.371   1.449   1.499   1.556   1.617   1.549   1.604   1.618   1.581   1.578   1.594   1.527   1.493   1.440   1.517   1.524   1.508   1.443   1.377   1.369   1.408   1.404   1.321   1.246   1.263
   111.98    1.507   1.475   1.526   1.426   1.444   1.478   1.451   1.522   1.478   1.346   1.395   1.516   1.542   1.512   1.653   1.572   1.537   1.568   1.568   1.554   1.511   1.556   1.523   1.439   1.442   1.368   1.337   1.352   1.292   1.264   1.294   1.229   1.162
   107.91    1.476   1.489   1.466   1.392   1.488   1.551   1.395   1.342   1.355   1.442   1.439   1.442   1.449   1.537   1.607   1.660   1.602   1.631   1.574   1.478   1.501   1.511   1.425   1.507   1.392   1.340   1.291   1.259   1.210   1.267   1.316   1.210   1.259
   103.85    1.414   1.456   1.508   1.489   1.516   1.450   1.329   1.352   1.420   1.509   1.500   1.509   1.628   1.561   1.564   1.621   1.630   1.609   1.529   1.580   1.518   1.506   1.519   1.532   1.432   1.359   1.280   1.301   1.248   1.306   1.317   1.279   1.223
    99.79    1.386   1.474   1.486   1.498   1.449   1.517   1.377   1.438   1.505   1.487   1.591   1.508   1.549   1.574   1.561   1.569   1.545   1.548   1.556   1.565   1.555   1.588   1.506   1.469   1.405   1.365   1.347   1.297   1.364   1.307   1.327   1.269   1.200
    95.73    1.383   1.495   1.496   1.554   1.457   1.553   1.542   1.549   1.580   1.537   1.564   1.548   1.538   1.563   1.588   1.572   1.512   1.548   1.558   1.534   1.556   1.504   1.463   1.466   1.383   1.408   1.360   1.361   1.396   1.337   1.306   1.266   1.291
    91.66    1.340   1.434   1.545   1.629   1.487   1.505   1.566   1.552   1.580   1.469   1.560   1.529   1.507   1.521   1.489   1.620   1.542   1.563   1.587   1.510   1.661   1.542   1.552   1.523   1.493   1.378   1.343   1.316   1.350   1.360   1.333   1.296   1.345
    87.60    1.468   1.573   1.637   1.672   1.524   1.501   1.502   1.567   1.559   1.407   1.468   1.464   1.515   1.586   1.577   1.620   1.504   1.503   1.587   1.631   1.588   1.621   1.595   1.517   1.470   1.470   1.454   1.391   1.199   1.267   1.236   1.313   1.333
    83.54    1.446   1.510   1.536   1.625   1.483   1.443   1.471   1.507   1.551   1.518   1.523   1.583   1.651   1.656   1.736   1.618   1.535   1.575   1.663   1.597   1.537   1.518   1.575   1.542   1.494   1.464   1.469   1.328   1.205   1.357   1.299   1.389   1.379
    79.48    1.469   1.583   1.550   1.617   1.524   1.446   1.546   1.568   1.537   1.441   1.545   1.589   1.546   1.707   1.716   1.694   1.598   1.610   1.601   1.633   1.633   1.605   1.595   1.609   1.562   1.492   1.502   1.422   1.320   1.315   1.336   1.420   1.486
    75.41    1.440   1.619   1.660   1.564   1.524   1.571   1.571   1.523   1.491   1.571   1.634   1.638   1.716   1.698   1.646   1.626   1.592   1.671   1.612   1.519   1.573   1.531   1.620   1.565   1.653   1.611   1.536   1.489   1.488   1.396   1.383   1.431   1.541
    71.35    1.448   1.565   1.618   1.502   1.648   1.619   1.448   1.559   1.631   1.602   1.609   1.550   1.573   1.617   1.551   1.640   1.643   1.622   1.624   1.505   1.517   1.576   1.614   1.716   1.651   1.635   1.577   1.544   1.470   1.378   1.371   1.431   1.501
    67.29    1.427   1.531   1.541   1.649   1.610   1.584   1.511   1.574   1.589   1.587   1.579   1.528   1.436   1.477   1.526   1.553   1.570   1.628   1.678   1.632   1.600   1.548   1.640   1.679   1.537   1.514   1.500   1.540   1.417   1.409   1.395   1.503   1.504
    63.23    1.408   1.569   1.624   1.682   1.697   1.578   1.533   1.568   1.553   1.632   1.479   1.399   1.439   1.518   1.464   1.458   1.525   1.610   1.664   1.748   1.706   1.674   1.641   1.593   1.389   1.456   1.382   1.400   1.491   1.427   1.452   1.497   1.537
    59.16    1.541   1.588   1.604   1.601   1.599   1.579   1.614   1.568   1.601   1.520   1.373   1.388   1.455   1.484   1.496   1.466   1.515   1.621   1.709   1.601   1.683   1.660   1.566   1.521   1.431   1.448   1.462   1.426   1.434   1.437   1.437   1.399   1.518
    55.10    1.500   1.596   1.547   1.483   1.540   1.525   1.595   1.583   1.539   1.458   1.352   1.413   1.411   1.465   1.497   1.485   1.546   1.652   1.588   1.540   1.659   1.612   1.497   1.443   1.431   1.381   1.399   1.425   1.412   1.489   1.505   1.452   1.477
    51.04    1.506   1.516   1.491   1.500   1.586   1.506   1.539   1.493   1.556   1.498   1.429   1.383   1.434   1.496   1.516   1.518   1.544   1.513   1.557   1.542   1.545   1.533   1.349   1.397   1.425   1.374   1.402   1.433   1.475   1.477   1.444   1.514   1.478
    46.98    1.447   1.440   1.470   1.519   1.624   1.543   1.587   1.488   1.514   1.520   1.473   1.437   1.432   1.429   1.433   1.489   1.510   1.522   1.569   1.474   1.532   1.424   1.391   1.365   1.486   1.453   1.447   1.360   1.482   1.428   1.477   1.530   1.521
    42.91    1.420   1.434   1.555   1.613   1.632   1.624   1.511   1.498   1.466   1.523   1.417   1.393   1.320   1.436   1.440   1.453   1.485   1.428   1.377   1.403   1.389   1.401   1.349   1.418   1.398   1.403   1.401   1.429   1.401   1.384   1.431   1.470   1.440
    38.85    1.464   1.492   1.624   1.629   1.630   1.642   1.492   1.514   1.605   1.589   1.467   1.377   1.339   1.407   1.473   1.491   1.435   1.320   1.363   1.365   1.315   1.352   1.417   1.424   1.386   1.405   1.393   1.473   1.419   1.419   1.464   1.465   1.439
    34.79    1.526   1.465   1.639   1.684   1.651   1.597   1.592   1.506   1.513   1.555   1.522   1.463   1.404   1.419   1.407   1.469   1.458   1.493   1.427   1.406   1.379   1.442   1.407   1.387   1.304   1.313   1.374   1.460   1.454   1.502   1.499   1.485   1.468
    30.73    1.455   1.503   1.569   1.625   1.642   1.614   1.634   1.574   1.538   1.511   1.509   1.473   1.370   1.421   1.360   1.445   1.484   1.501   1.479   1.342   1.303   1.357   1.328   1.271   1.348   1.325   1.387   1.415   1.423   1.479   1.418   1.344   1.372
    26.66    1.500   1.490   1.602   1.660   1.619   1.576   1.614   1.602   1.571   1.561   1.492   1.496   1.455   1.434   1.467   1.452   1.455   1.485   1.430   1.442   1.401   1.293   1.353   1.371   1.428   1.400   1.420   1.345   1.445   1.385   1.407   1.456   1.450
    22.60    1.528   1.591   1.593   1.599   1.585   1.681   1.702   1.676   1.603   1.518   1.545   1.544   1.499   1.420   1.510   1.549   1.488   1.451   1.480   1.433   1.463   1.406   1.429   1.446   1.352   1.320   1.387   1.434   1.419   1.451   1.451   1.411   1.479

   Height   Standard deviation at grid points for the v component:
   152.60    1.192   1.220   1.229   1.227   1.153   1.181   1.141   1.155   1.187   1.203   1.178   1.164   1.153   1.122   1.105   1.141   1.094   1.112   1.098   1.172   1.118   1.120   1.193   1.207   1.222   1.249   1.257   1.219   1.191   1.219   1.185   1.210   1.161
   148.54    1.204   1.192   1.166   1.252   1.243   1.209   1.161   1.209   1.291   1.193   1.204   1.151   1.134   1.118   1.111   1.074   1.103   1.100   1.052   1.093   1.154   1.115   1.117   1.155   1.173   1.202   1.137   1.187   1.191   1.205   1.176   1.212   1.159
   144.48    1.229   1.197   1.233   1.239   1.196   1.177   1.184   1.237   1.246   1.238   1.169   1.199   1.139   1.101   1.128   1.036   1.117   1.056   1.095   1.061   1.094   1.044   1.065   1.075   1.113   1.148   1.161   1.077   1.146   1.170   1.170   1.177   1.116
   140.41    1.230   1.240   1.242   1.183   1.190   1.255   1.201   1.201   1.224   1.272   1.202   1.156   1.120   1.175   1.134   1.099   1.074   1.091   1.137   1.070   1.096   1.039   1.033   1.030   1.061   1.107   1.124   1.065   1.109   1.166   1.125   1.094   1.092
   136.35    1.238   1.247   1.212   1.174   1.192   1.219   1.190   1.172   1.190   1.199   1.190   1.124   1.105   1.175   1.127   1.112   1.086   1.065   1.074   1.098   1.082   1.002   0.988   0.964   1.039   1.095   1.101   1.027   1.095   1.136   1.152   1.071   1.080
   132.29    1.188   1.153   1.153   1.151   1.201   1.184   1.131   1.144   1.156   1.148   1.140   1.173   1.124   1.088   1.104   1.095   1.062   1.059   1.051   1.061   1.056   1.012   0.980   0.985   1.076   1.113   1.083   1.042   1.054   1.088   1.086   1.095   1.026
   128.23    1.208   1.169   1.151   1.153   1.180   1.145   1.174   1.157   1.151   1.118   1.087   1.083   1.118   1.100   1.110   1.068   1.038   1.033   1.067   1.054   1.005   0.984   1.065   1.012   1.104   1.083   1.048   1.067   1.077   1.016   1.059   1.023   0.988
   124.16    1.190   1.172   1.129   1.144   1.125   1.150   1.180   1.122   1.091   1.080   1.076   1.101   1.057   1.051   1.089   1.066   1.047   0.980   0.985   0.995   0.976   0.972   0.994   1.040   1.093   1.061   1.079   1.056   1.071   1.002   1.024   0.988   0.996
   120.10    1.136   1.152   1.139   1.127   1.142   1.190   1.109   1.045   0.987   1.021   1.063   1.054   1.077   1.086   1.060   1.057   1.004   1.013   1.011   1.058   0.971   0.945   0.969   1.054   1.073   1.091   1.037   1.056   1.017   0.997   0.997   0.952   1.001
   116.04    1.085   1.118   1.108   1.119   1.138   1.173   1.114   1.079   1.024   1.040   1.004   1.030   1.025   1.023   1.054   1.025   1.009   0.978   1.001   1.048   1.022   1.001   1.036   1.054   1.034   1.058   1.036   1.035   1.067   1.072   1.029   0.941   0.971
   111.98    1.083   1.088   1.166   1.135   1.156   1.105   1.041   1.092   1.086   1.037   0.994   1.067   1.034   1.016   1.032   1.008   1.019   0.955   0.965   0.998   1.078   1.044   1.024   1.056   1.044   1.032   1.032   0.996   1.042   1.053   0.976   0.934   0.974
   107.91    1.083   1.075   1.115   1.116   1.099   1.065   1.057   1.101   1.082   1.043   1.068   1.033   1.033   1.035   1.047   1.030   0.975   0.983   0.974   0.998   1.047   1.093   1.059   1.071   1.085   1.079   1.060   1.004   1.000   0.983   0.996   0.982   0.964
   103.85    1.141   1.130   1.088   1.082   1.066   1.064   1.114   1.098   1.072   1.083   1.022   0.997   0.999   0.979   1.045   0.981   0.947   1.008   0.978   1.036   1.051   1.061   1.064   1.068   1.061   1.056   1.055   1.022   0.999   0.959   0.980   0.981   0.952
    99.79    1.130   1.156   1.142   1.136   1.042   1.106   1.148   1.132   1.110   1.094   1.082   0.987   1.013   1.010   1.007   1.006   1.009   1.051   1.045   1.028   1.017   1.015   1.024   1.027   1.083   1.063   1.054   1.048   1.007   1.000   1.036   0.959   0.975
    95.73    1.126   1.109   1.131   1.111   1.083   1.102   1.114   1.174   1.128   1.080   1.084   1.064   1.039   1.038   1.037   1.033   0.982   1.036   1.063   1.021   1.038   0.999   1.059   1.089   1.091   1.073   1.084   1.091   1.049   1.032   1.027   0.993   0.985
    91.66    1.133   1.195   1.135   1.098   1.126   1.121   1.132   1.116   1.133   1.111   1.116   1.053   0.997   1.026   0.974   1.012   1.002   1.015   1.093   1.072   1.051   1.022   1.047   1.121   1.108   1.027   1.031   1.056   1.025   1.027   1.007   1.004   0.991
    87.60    1.169   1.152   1.154   1.097   1.145   1.139   1.141   1.162   1.110   1.158   1.195   1.083   1.038   1.086   1.055   1.003   1.020   1.047   1.152   1.132   1.122   1.070   1.043   1.109   1.124   1.083   1.082   1.099   1.023   1.027   1.097   1.083   1.087
    83.54    1.109   1.144   1.221   1.198   1.219   1.162   1.135   1.191   1.194   1.166   1.146   1.070   1.071   1.102   1.119   1.038   1.037   1.096   1.137   1.083   1.108   1.100   1.105   1.099   1.157   1.137   1.139   1.132   1.082   1.115   1.109   1.133   1.086
    79.48    1.105   1.163   1.207   1.220   1.180   1.136   1.185   1.171   1.176   1.123   1.111   1.086   1.094   1.106   1.103   1.057   1.062   1.121   1.140   1.104   1.110   1.190   1.158   1.098   1.123   1.157   1.167   1.141   1.182   1.161   1.140   1.077   1.094
    75.41    1.159   1.184   1.211   1.229   1.168   1.130   1.121   1.120   1.134   1.118   1.090   1.093   1.104   1.098   1.123   1.101   1.143   1.104   1.150   1.130   1.200   1.143   1.145   1.125   1.161   1.107   1.151   1.186   1.132   1.129   1.129   1.040   1.038
    71.35    1.207   1.213   1.180   1.222   1.196   1.142   1.145   1.112   1.119   1.154   1.132   1.091   1.105   1.079   1.061   1.131   1.146   1.081   1.113   1.114   1.143   1.147   1.097   1.122   1.097   1.131   1.116   1.138   1.190   1.081   1.066   1.058   1.061
    67.29    1.198   1.186   1.194   1.240   1.208   1.171   1.138   1.102   1.157   1.146   1.123   1.115   1.106   1.115   1.114   1.135   1.102   1.104   1.072   1.091   1.106   1.093   1.098   1.051   1.079   1.094   1.069   1.062   1.124   1.102   1.077   1.021   0.996
    63.23    1.133   1.121   1.159   1.169   1.190   1.137   1.179   1.163   1.175   1.147   1.134   1.143   1.123   1.121   1.092   1.077   1.046   1.084   1.051   1.078   1.106   1.059   1.064   1.049   1.058   1.083   1.003   1.003   1.050   1.024   1.036   1.042   1.034
    59.16    1.102   1.063   1.105   1.130   1.159   1.154   1.171   1.203   1.277   1.231   1.161   1.152   1.182   1.098   1.105   1.077   1.083   1.079   1.128   1.121   1.105   1.066   1.071   1.047   1.045   1.043   0.991   1.033   1.037   1.049   1.047   1.040   1.006
    55.10    1.084   1.118   1.139   1.119   1.125   1.157   1.180   1.214   1.268   1.297   1.269   1.232   1.177   1.141   1.061   1.037   1.069   1.135   1.166   1.117   1.100   1.086   1.060   1.055   1.044   1.060   1.077   1.023   1.055   1.101   1.073   1.098   1.042
    51.04    1.149   1.144   1.156   1.096   1.135   1.151   1.158   1.189   1.252   1.258   1.279   1.269   1.226   1.184   1.104   1.126   1.147   1.151   1.155   1.104   1.137   1.097   1.092   1.045   1.050   1.118   1.132   1.114   1.135   1.113   1.111   1.098   1.025
    46.98    1.145   1.175   1.113   1.105   1.100   1.119   1.174   1.208   1.232   1.218   1.239   1.261   1.174   1.243   1.173   1.137   1.156   1.179   1.158   1.102   1.124   1.051   1.028   1.090   1.090   1.094   1.136   1.120   1.127   1.153   1.095   1.085   1.077
    42.91    1.149   1.133   1.120   1.081   1.119   1.142   1.132   1.156   1.217   1.248   1.206   1.237   1.229   1.216   1.198   1.167   1.170   1.145   1.158   1.168   1.105   1.080   1.069   1.066   1.100   1.131   1.119   1.138   1.091   1.092   1.073   1.112   1.076
    38.85    1.142   1.123   1.118   1.102   1.126   1.116   1.083   1.152   1.178   1.253   1.237   1.255   1.205   1.173   1.205   1.192   1.195   1.147   1.155   1.120   1.132   1.140   1.059   1.086   1.091   1.054   1.133   1.196   1.102   1.068   1.037   1.045   1.078
    34.79    1.139   1.146   1.128   1.136   1.148   1.148   1.159   1.150   1.204   1.229   1.229   1.242   1.193   1.161   1.158   1.164   1.161   1.117   1.110   1.156   1.184   1.160   1.089   1.086   1.082   1.095   1.135   1.136   1.166   1.148   1.058   1.051   1.053
    30.73    1.176   1.116   1.127   1.140   1.160   1.140   1.139   1.124   1.175   1.222   1.235   1.225   1.207   1.147   1.127   1.135   1.133   1.130   1.168   1.184   1.186   1.168   1.088   1.085   1.052   1.115   1.120   1.183   1.185   1.145   1.092   1.083   1.039
    26.66    1.148   1.107   1.138   1.165   1.187   1.160   1.147   1.156   1.235   1.180   1.172   1.214   1.182   1.148   1.149   1.154   1.173   1.124   1.199   1.180   1.162   1.177   1.160   1.105   1.100   1.097   1.149   1.166   1.145   1.183   1.093   1.049   1.022
    22.60    1.168   1.111   1.152   1.134   1.149   1.141   1.148   1.180   1.170   1.177   1.191   1.181   1.141   1.136   1.205   1.145   1.142   1.151   1.153   1.208   1.206   1.228   1.143   1.131   1.097   1.140   1.126   1.144   1.157   1.187   1.091   1.044   1.061

   Height   Standard deviation at grid points for the w component:
   152.60    0.884   0.894   0.923   0.931   0.928   0.895   0.877   0.892   0.856   0.894   0.881   0.893   0.912   0.922   0.904   0.945   0.951   0.907   0.952   0.950   0.922   0.947   0.934   0.927   0.949   0.965   0.976   0.984   0.968   1.005   1.019   1.020   0.964
   148.54    0.928   0.908   0.900   0.907   0.937   0.933   0.905   0.917   0.908   0.902   0.886   0.896   0.907   0.919   0.928   0.952   0.954   0.892   0.955   0.955   0.911   0.959   0.970   0.960   0.993   0.998   1.029   0.997   0.993   0.992   1.007   1.027   1.019
   144.48    0.963   0.928   0.901   0.909   0.921   0.921   0.891   0.877   0.919   0.929   0.901   0.908   0.930   0.962   0.948   0.956   0.935   0.934   0.945   0.975   0.964   0.961   0.968   0.971   0.991   0.975   0.979   0.983   0.985   0.972   0.983   1.006   1.051
   140.41    0.909   0.937   0.927   0.888   0.880   0.887   0.956   0.891   0.906   0.904   0.910   0.930   0.944   0.973   0.978   0.956   0.953   0.914   0.954   0.976   1.002   1.011   0.981   0.944   0.943   0.977   0.995   0.996   0.955   0.953   0.985   0.995   1.042
   136.35    0.945   0.943   0.917   0.874   0.899   0.912   0.930   0.911   0.943   0.913   0.882   0.906   0.931   0.957   0.945   0.928   0.957   0.952   0.989   0.986   1.056   1.025   1.004   0.981   0.968   0.988   0.983   1.001   0.947   0.953   0.982   1.005   0.962
   132.29    0.906   0.931   0.942   0.916   0.900   0.909   0.905   0.959   0.919   0.918   0.917   0.896   0.953   0.966   0.979   0.973   0.949   0.974   0.996   1.011   1.024   1.018   0.974   0.975   1.025   0.997   0.947   0.962   0.960   0.972   1.017   0.977   0.965
   128.23    0.946   0.927   0.913   0.908   0.869   0.897   0.871   0.908   0.912   0.926   0.917   0.908   0.945   0.964   0.990   1.026   1.021   0.989   0.972   0.995   1.003   0.989   0.990   1.004   0.987   0.980   0.958   0.974   0.957   1.000   0.973   0.993   0.990
   124.16    0.908   0.928   0.938   0.900   0.903   0.908   0.876   0.902   0.917   0.965   0.931   0.927   0.913   0.968   0.997   0.975   1.014   0.991   0.955   0.951   0.986   0.970   0.959   0.968   0.979   0.958   0.988   0.966   0.935   0.959   0.988   0.979   0.989
   120.10    0.963   0.981   0.958   0.928   0.920   0.915   0.929   0.893   0.927   0.940   0.940   0.934   0.940   0.954   0.988   0.980   0.988   0.954   0.946   0.965   0.965   0.936   0.940   0.954   0.968   0.956   0.983   0.967   0.925   0.945   0.968   0.937   0.958
   116.04    0.948   0.926   0.947   0.932   0.900   0.911   0.913   0.890   0.923   0.946   0.937   0.936   0.949   0.899   0.947   0.959   0.905   0.939   0.940   0.971   0.938   0.912   0.933   0.970   0.971   0.961   0.949   0.935   0.938   0.956   0.982   0.948   0.932
   111.98    0.955   0.922   0.936   0.930   0.895   0.936   0.921   0.883   0.913   0.945   0.951   0.896   0.907   0.915   0.915   0.886   0.900   0.908   0.935   0.931   0.914   0.906   0.946   0.989   0.954   0.969   0.952   0.971   0.987   0.947   0.927   0.902   0.898
   107.91    0.927   0.941   0.921   0.924   0.911   0.913   0.916   0.902   0.897   0.897   0.902   0.906   0.882   0.877   0.946   0.928   0.912   0.912   0.893   0.888   0.863   0.872   0.920   0.962   0.956   0.935   0.938   0.970   0.926   0.887   0.908   0.892   0.890
   103.85    0.941   0.922   0.915   0.907   0.892   0.889   0.895   0.872   0.868   0.877   0.922   0.929   0.919   0.905   0.946   0.925   0.920   0.911   0.914   0.864   0.868   0.848   0.918   0.945   0.960   0.970   0.915   0.911   0.915   0.881   0.905   0.881   0.874
    99.79    0.937   0.891   0.917   0.921   0.904   0.913   0.882   0.893   0.851   0.883   0.898   0.956   0.944   0.948   0.943   0.940   0.897   0.950   0.974   0.886   0.872   0.900   0.903   0.924   0.923   0.952   0.913   0.899   0.899   0.890   0.949   0.921   0.872
    95.73    0.945   0.903   0.887   0.912   0.912   0.865   0.901   0.881   0.873   0.890   0.908   0.942   0.936   0.957   0.964   0.948   0.951   0.953   0.968   0.947   0.900   0.911   0.901   0.903   0.921   0.936   0.908   0.900   0.908   0.942   0.901   0.913   0.921
    91.66    0.944   0.946   0.914   0.895   0.889   0.902   0.903   0.900   0.900   0.897   0.892   0.923   0.931   0.907   0.974   0.918   0.901   0.945   0.930   0.922   0.911   0.909   0.907   0.916   0.934   0.932   0.904   0.919   0.920   0.916   0.899   0.902   0.899
    87.60    0.919   0.923   0.926   0.915   0.934   0.928   0.896   0.909   0.888   0.880   0.891   0.935   0.906   0.960   0.961   0.937   0.905   0.908   0.912   0.888   0.896   0.890   0.934   0.924   0.884   0.902   0.885   0.923   0.931   0.904   0.922   0.912   0.871
    83.54    0.885   0.891   0.932   0.962   0.966   0.948   0.956   0.901   0.955   0.896   0.891   0.934   0.945   0.971   0.978   0.931   0.904   0.880   0.861   0.868   0.878   0.883   0.904   0.889   0.912   0.899   0.920   0.917   0.887   0.889   0.891   0.898   0.914
    79.48    0.915   0.939   0.964   0.966   0.941   0.964   0.954   0.921   0.921   0.910   0.872   0.910   0.956   0.954   0.918   0.934   0.893   0.863   0.836   0.843   0.821   0.875   0.873   0.908   0.879   0.895   0.898   0.910   0.880   0.888   0.895   0.905   0.913
    75.41    0.945   0.921   0.951   0.965   0.954   0.935   0.946   0.901   0.884   0.914   0.909   0.916   0.938   0.925   0.906   0.927   0.886   0.875   0.862   0.856   0.856   0.879   0.933   0.924   0.885   0.902   0.911   0.899   0.900   0.896   0.897   0.883   0.893
    71.35    0.951   0.945   0.950   0.951   0.943   0.960   0.937   0.901   0.905   0.953   0.935   0.886   0.917   0.921   0.891   0.914   0.930   0.899   0.906   0.916   0.869   0.891   0.865   0.915   0.915   0.931   0.904   0.881   0.871   0.903   0.933   0.936   0.916
    67.29    0.949   0.936   0.896   0.958   0.966   0.921   0.904   0.915   0.910   0.900   0.938   0.927   0.878   0.899   0.897   0.894   0.916   0.912   0.907   0.887   0.883   0.911   0.867   0.903   0.927   0.919   0.901   0.863   0.878   0.917   0.948   0.966   0.942
    63.23    0.933   0.929   0.909   0.926   0.961   0.915   0.888   0.903   0.929   0.873   0.864   0.897   0.906   0.920   0.908   0.903   0.919   0.900   0.877   0.905   0.900   0.916   0.947   0.938   0.925   0.895   0.876   0.877   0.868   0.896   0.924   0.962   0.931
    59.16    0.922   0.946   0.889   0.907   0.929   0.935   0.923   0.910   0.927   0.856   0.871   0.860   0.903   0.875   0.908   0.899   0.909   0.887   0.870   0.870   0.877   0.912   0.899   0.928   0.893   0.903   0.908   0.900   0.924   0.923   0.919   0.966   0.911
    55.10    0.968   0.921   0.922   0.912   0.929   0.934   0.891   0.892   0.902   0.881   0.868   0.882   0.885   0.909   0.880   0.896   0.894   0.938   0.890   0.856   0.902   0.942   0.930   0.931   0.905   0.924   0.934   0.957   0.949   0.938   0.919   0.942   0.946
    51.04    0.944   0.947   0.887   0.922   0.929   0.931   0.905   0.898   0.899   0.889   0.881   0.917   0.879   0.896   0.884   0.878   0.901   0.886   0.896   0.891   0.920   0.913   0.946   0.948   0.918   0.920   0.903   0.889   0.943   0.926   0.911   0.953   0.945
    46.98    0.921   0.922   0.886   0.912   0.932   0.917   0.887   0.882   0.892   0.909   0.868   0.916   0.907   0.886   0.909   0.899   0.913   0.912   0.935   0.889   0.925   0.906   0.904   0.907   0.934   0.949   0.928   0.907   0.940   0.949   0.914   0.920   0.977
    42.91    0.899   0.920   0.904   0.895   0.907   0.899   0.917   0.922   0.916   0.911   0.925   0.934   0.905   0.936   0.932   0.896   0.884   0.907   0.891   0.900   0.918   0.898   0.906   0.900   0.893   0.897   0.917   0.930   0.921   0.908   0.933   0.933   0.932
    38.85    0.892   0.898   0.897   0.920   0.907   0.860   0.895   0.973   0.930   0.894   0.909   0.904   0.932   0.899   0.902   0.876   0.897   0.919   0.880   0.882   0.917   0.890   0.889   0.913   0.889   0.915   0.930   0.906   0.902   0.927   0.909   0.954   0.944
    34.79    0.877   0.905   0.922   0.897   0.867   0.863   0.889   0.915   0.912   0.866   0.868   0.903   0.925   0.908   0.935   0.934   0.908   0.893   0.861   0.897   0.906   0.908   0.899   0.921   0.918   0.938   0.931   0.872   0.905   0.900   0.912   0.953   0.945
    30.73    0.899   0.885   0.875   0.871   0.847   0.892   0.880   0.902   0.912   0.897   0.883   0.905   0.926   0.891   0.914   0.930   0.910   0.916   0.887   0.915   0.903   0.927   0.926   0.926   0.906   0.903   0.886   0.881   0.896   0.910   0.922   0.932   0.930
    26.66    0.866   0.897   0.914   0.875   0.896   0.921   0.903   0.897   0.874   0.904   0.893   0.920   0.896   0.879   0.910   0.924   0.888   0.881   0.882   0.892   0.908   0.922   0.926   0.893   0.882   0.887   0.909   0.889   0.932   0.922   0.923   0.916   0.944
    22.60    0.892   0.874   0.870   0.892   0.871   0.897   0.890   0.886   0.872   0.879   0.896   0.904   0.884   0.873   0.886   0.899   0.873   0.873   0.897   0.885   0.892   0.915   0.923   0.901   0.891   0.895   0.906   0.914   0.924   0.908   0.923   0.930   0.933

   Mean standard deviation across all grid points:
      u component:    1.502 m/s
      v component:    1.109 m/s
      w component:    0.922 m/s


U-component (X) statistics from the hub grid point:

   Mean =  14.0000 m/s
   TI   =  10.7407 %

Nyquist frequency of turbulent wind field =        10.000 Hz


Processing complete.  373.86 CPU seconds used.
