
This summary file was generated by TurbSim (v1.06.00, 21-Sep-2012) on 15-Sep-2020 at 15:29:52.


Runtime Options:

  65432154  Random seed #1
    RANLUX  Type of random number generator
         F  Output binary HH turbulence parameters?
         F  Output formatted turbulence parameters?
         F  Output AeroDyn HH files?
         T  Output AeroDyn FF files?
         F  Output BLADED FF files?
         T  Output tower data?
         F  Output formatted FF files?
         F  Output coherent turbulence time step file?
         T  Clockwise rotation when looking downwind?
 0 -  NONE  IEC turbulence models scaled to exact specified standard deviation


Turbine/Model Specifications:

        33  Vertical grid-point matrix dimension
        33  Horizontal grid-point matrix dimension
     0.050  Time step [seconds]
   370.000  Analysis time [seconds]
   370.000  Usable output time [seconds]
    87.600  Hub height [m]
   130.000  Grid height [m]
   130.000  Grid width [m]
     0.000  Vertical flow angle [degrees]
     0.000  Horizontal flow angle [degrees]


Meteorological Boundary Conditions:

    SMOOTH  RISO Smooth Terrain spectral model
       N/A  IEC standard
       N/A  IEC turbulence characteristic
       N/A  IEC turbulence type
       N/A  IEC Extreme Turbulence Model (ETM) "c" parameter [m/s]
       IEC  Wind profile type
    87.600  Reference height [m]
    16.000  Reference wind speed [m/s]
       N/A  Jet height [m]
     0.143  Power law exponent
     0.010  Surface roughness length [m]


Non-IEC Meteorological Boundary Conditions:

    45.000  Site latitude [degrees]
     0.050  Gradient Richardson number
     0.680  Friction or shear velocity [m/s]
       N/A  Mixing layer depth [m]
    -0.462  Mean hub u'w' Reynolds stress
       N/A  Mean hub u'v' Reynolds stress
       N/A  Mean hub v'w' Reynolds stress
(   16.000,  0.00    )  u-component coherence parameters
(   12.000,  0.00    )  v-component coherence parameters
(   12.000,  0.00    )  w-component coherence parameters
     0.000  Coherence exponent


You have requested that the following file(s) be generated:

   unsteady_tmp_16.bts (AeroDyn/TurbSim full-field wind file)


Turbulence Simulation Scaling Parameter Summary:

   Turbulence model used                            =  RISO Smooth Terrain
   Gradient Richardson number                       =    0.050
   Monin-Obukhov (M-O) z/L parameter                =    0.067
   Monin-Obukhov (M-O) length scale                 = 1314.000 m
   Mean wind speed at hub height                    =   16.000 m/s

   Wind profile type                                =  Power law on rotor disk, logarithmic elsewhere
   Power law exponent                               =    0.143
   Mean shear across rotor disk                     =    0.029 (m/s)/m
   Assumed rotor diameter                           =  130.000 m
   Surface roughness length                         =    0.010 m

   Number of time steps in the FFT                  =     7600
   Number of time steps output                      =     7563


Mean Flow Angles:

   Vertical   =   0.0 degrees
   Horizontal =   0.0 degrees

Mean Wind Speed Profile:

   Height    Wind Speed   Horizontal Angle  U-comp (X)   V-comp (Y)   W-comp (Z)
     (m)        (m/s)         (degrees)       (m/s)        (m/s)        (m/s)   
   ------    ----------   ----------------  ----------   ----------   ----------
    152.6       16.98            0.00         16.98         0.00         0.00
    148.5       17.25            0.00         17.25         0.00         0.00
    144.5       17.19            0.00         17.19         0.00         0.00
    140.4       17.12            0.00         17.12         0.00         0.00
    136.4       17.05            0.00         17.05         0.00         0.00
    132.3       16.97            0.00         16.97         0.00         0.00
    128.2       16.90            0.00         16.90         0.00         0.00
    124.2       16.82            0.00         16.82         0.00         0.00
    120.1       16.74            0.00         16.74         0.00         0.00
    116.0       16.66            0.00         16.66         0.00         0.00
    112.0       16.57            0.00         16.57         0.00         0.00
    107.9       16.48            0.00         16.48         0.00         0.00
    103.9       16.39            0.00         16.39         0.00         0.00
     99.8       16.30            0.00         16.30         0.00         0.00
     95.7       16.20            0.00         16.20         0.00         0.00
     91.7       16.10            0.00         16.10         0.00         0.00
     87.6       16.00            0.00         16.00         0.00         0.00
     83.5       15.89            0.00         15.89         0.00         0.00
     79.5       15.78            0.00         15.78         0.00         0.00
     75.4       15.66            0.00         15.66         0.00         0.00
     71.4       15.54            0.00         15.54         0.00         0.00
     67.3       15.41            0.00         15.41         0.00         0.00
     63.2       15.27            0.00         15.27         0.00         0.00
     59.2       15.13            0.00         15.13         0.00         0.00
     55.1       14.97            0.00         14.97         0.00         0.00
     51.0       14.81            0.00         14.81         0.00         0.00
     47.0       14.64            0.00         14.64         0.00         0.00
     42.9       14.45            0.00         14.45         0.00         0.00
     38.9       14.24            0.00         14.24         0.00         0.00
     34.8       14.02            0.00         14.02         0.00         0.00
     30.7       13.77            0.00         13.77         0.00         0.00
     26.7       13.50            0.00         13.50         0.00         0.00
     22.6       13.18            0.00         13.18         0.00         0.00
     18.5       13.26            0.00         13.26         0.00         0.00
     14.5       12.83            0.00         12.83         0.00         0.00
     10.4       12.25            0.00         12.25         0.00         0.00
      6.4       11.37            0.00         11.37         0.00         0.00
      2.3        9.58            0.00          9.58         0.00         0.00


Harvested Random Seeds after Generation of the Random Numbers:

    115881950 K1
            0 K2


Scaling statistics from the hub grid point:

   Cross-Component  Scaling Factor
   ---------------  --------------
   u'w'               -0.52764E-01
   u'v'                0.00000E+00
   v'w'                0.00000E+00


Hub-Height Simulated Turbulence Statistical Summary:

   Type of Wind        Min (m/s)   Mean (m/s)    Max (m/s)  Sigma (m/s)       TI (%)
   ----------------    ---------   ----------    ---------  -----------       ------
   Longitudinal (u)        10.80        16.00        21.08        1.728       10.802
   Lateral (v)             -3.31         0.00         4.20        1.180        7.376
   Vertical (w)            -3.36         0.00         3.47        1.039        6.496
   U component             10.80        16.00        21.08        1.728       10.802
   V component             -3.31         0.00         4.20        1.180        7.376
   W component             -3.36         0.00         3.47        1.039        6.496
   Horizontal (U&V)        10.89        16.04        21.14        1.725       10.751
   Total                   10.91        16.08        21.14        1.721       10.704

                       Min Reynolds     Mean Reynolds    Max Reynolds    Correlation
   Product             Stress (m/s)^2   Stress (m/s)^2   Stress (m/s)^2  Coefficient
   ----------------    --------------   --------------   --------------  -----------
   u'w'                    -15.292            -0.462             6.477        -0.257
   u'v'                    -13.389            -0.056             8.391        -0.028
   v'w'                     -8.007             0.018             6.828         0.015


   Friction Velocity (Ustar)  =      0.680 m/s
   Maximum Instantaneous TKE  =     16.729 (m/s)^2
   Maximum Instantaneous CTKE =      8.613 (m/s)^2


Grid Point Variance Summary:

   Y-coord  -65.00  -60.94  -56.88  -52.81  -48.75  -44.69  -40.62  -36.56  -32.50  -28.44  -24.38  -20.31  -16.25  -12.19   -8.12   -4.06    0.00    4.06    8.12   12.19   16.25   20.31   24.38   28.44   32.50   36.56   40.62   44.69   48.75   52.81   56.88   60.94   65.00

   Height   Standard deviation at grid points for the u component:
   152.60    1.672   1.869   1.754   1.713   1.766   1.690   1.771   1.783   1.794   1.840   1.771   1.737   1.685   1.855   1.903   1.974   1.908   1.782   1.773   1.765   1.841   1.726   1.763   1.696   1.770   1.694   1.765   1.818   1.851   1.645   1.643   1.649   1.684
   148.54    1.819   1.813   1.803   1.692   1.775   1.718   1.714   1.620   1.784   1.823   1.858   1.773   1.799   1.864   1.910   1.872   1.884   1.845   1.763   1.812   1.844   1.783   1.764   1.727   1.650   1.604   1.551   1.754   1.790   1.757   1.670   1.671   1.658
   144.48    1.717   1.616   1.732   1.672   1.626   1.717   1.788   1.798   1.845   1.915   1.854   1.810   1.813   1.893   1.945   1.832   1.703   1.671   1.665   1.697   1.747   1.775   1.693   1.631   1.737   1.739   1.684   1.726   1.831   1.732   1.763   1.657   1.734
   140.41    1.774   1.694   1.655   1.739   1.669   1.669   1.784   1.891   1.933   1.920   1.917   1.842   1.839   1.873   1.827   1.859   1.734   1.665   1.613   1.687   1.633   1.622   1.618   1.655   1.747   1.790   1.747   1.782   1.792   1.723   1.628   1.583   1.696
   136.35    1.686   1.771   1.814   1.744   1.746   1.809   1.788   1.891   1.941   1.958   1.825   1.745   1.764   1.753   1.851   1.865   1.814   1.858   1.771   1.637   1.626   1.624   1.609   1.596   1.663   1.665   1.783   1.840   1.821   1.749   1.731   1.642   1.607
   132.29    1.623   1.695   1.773   1.751   1.778   1.780   1.879   1.808   1.879   1.841   1.766   1.816   1.733   1.727   1.803   1.858   1.833   1.907   1.843   1.774   1.820   1.791   1.696   1.694   1.679   1.763   1.833   1.767   1.865   1.799   1.823   1.679   1.573
   128.23    1.681   1.641   1.765   1.747   1.807   1.835   1.783   1.868   1.887   1.833   1.754   1.807   1.839   1.679   1.802   1.858   1.942   1.876   1.866   1.824   1.774   1.773   1.654   1.598   1.784   1.845   1.789   1.750   1.839   1.732   1.702   1.683   1.568
   124.16    1.772   1.696   1.847   1.871   1.812   1.821   1.765   1.832   1.828   1.841   1.780   1.884   1.840   1.741   1.843   1.915   1.902   1.874   1.774   1.812   1.752   1.674   1.645   1.680   1.840   1.803   1.752   1.639   1.767   1.633   1.558   1.604   1.537
   120.10    1.735   1.750   1.861   1.844   1.847   1.807   1.744   1.770   1.690   1.774   1.748   1.869   1.715   1.811   1.880   1.883   1.849   1.866   1.797   1.754   1.800   1.703   1.624   1.705   1.781   1.792   1.652   1.664   1.665   1.609   1.655   1.603   1.497
   116.04    1.686   1.803   1.792   1.700   1.708   1.772   1.727   1.665   1.588   1.673   1.727   1.793   1.863   1.790   1.848   1.861   1.820   1.817   1.835   1.755   1.722   1.662   1.742   1.747   1.725   1.655   1.591   1.585   1.631   1.625   1.525   1.445   1.464
   111.98    1.730   1.693   1.753   1.637   1.658   1.704   1.682   1.761   1.712   1.562   1.612   1.746   1.776   1.751   1.907   1.816   1.766   1.807   1.813   1.793   1.748   1.793   1.753   1.652   1.652   1.575   1.549   1.561   1.495   1.465   1.500   1.424   1.349
   107.91    1.690   1.716   1.692   1.604   1.713   1.784   1.612   1.553   1.565   1.664   1.661   1.659   1.671   1.772   1.854   1.905   1.841   1.879   1.820   1.703   1.739   1.741   1.646   1.736   1.605   1.545   1.491   1.459   1.401   1.463   1.525   1.402   1.454
   103.85    1.624   1.678   1.733   1.706   1.750   1.673   1.536   1.561   1.646   1.744   1.730   1.737   1.871   1.794   1.794   1.861   1.874   1.853   1.765   1.826   1.758   1.735   1.748   1.765   1.663   1.576   1.480   1.510   1.444   1.508   1.525   1.481   1.410
    99.79    1.592   1.693   1.705   1.720   1.667   1.745   1.588   1.660   1.740   1.714   1.826   1.739   1.780   1.803   1.789   1.804   1.777   1.786   1.793   1.798   1.794   1.829   1.735   1.693   1.630   1.585   1.563   1.505   1.581   1.511   1.535   1.466   1.390
    95.73    1.589   1.715   1.716   1.782   1.676   1.780   1.769   1.782   1.821   1.773   1.795   1.784   1.767   1.795   1.825   1.810   1.739   1.783   1.794   1.768   1.792   1.729   1.684   1.699   1.608   1.634   1.579   1.581   1.617   1.549   1.508   1.459   1.487
    91.66    1.537   1.646   1.769   1.868   1.708   1.731   1.796   1.776   1.813   1.697   1.792   1.754   1.728   1.748   1.716   1.862   1.777   1.804   1.834   1.745   1.920   1.783   1.792   1.760   1.728   1.596   1.557   1.530   1.562   1.573   1.542   1.496   1.542
    87.60    1.680   1.800   1.871   1.911   1.749   1.724   1.725   1.798   1.790   1.622   1.689   1.686   1.737   1.819   1.811   1.863   1.728   1.731   1.833   1.886   1.831   1.872   1.842   1.746   1.693   1.697   1.682   1.614   1.394   1.470   1.433   1.513   1.535
    83.54    1.660   1.732   1.753   1.856   1.697   1.651   1.686   1.736   1.783   1.740   1.747   1.818   1.897   1.900   1.985   1.858   1.765   1.810   1.915   1.839   1.775   1.751   1.814   1.781   1.727   1.691   1.698   1.545   1.403   1.579   1.509   1.601   1.593
    79.48    1.678   1.812   1.775   1.846   1.741   1.653   1.767   1.803   1.763   1.647   1.766   1.817   1.774   1.953   1.963   1.941   1.835   1.841   1.837   1.875   1.881   1.848   1.840   1.855   1.808   1.726   1.743   1.654   1.534   1.528   1.553   1.640   1.718
    75.41    1.641   1.845   1.893   1.790   1.744   1.802   1.800   1.746   1.705   1.795   1.867   1.871   1.964   1.947   1.882   1.862   1.824   1.915   1.848   1.741   1.802   1.764   1.864   1.806   1.907   1.863   1.779   1.727   1.725   1.618   1.605   1.655   1.777
    71.35    1.652   1.786   1.848   1.720   1.884   1.850   1.659   1.786   1.860   1.834   1.839   1.768   1.800   1.856   1.777   1.879   1.886   1.865   1.870   1.727   1.751   1.817   1.861   1.976   1.898   1.886   1.820   1.790   1.704   1.597   1.586   1.655   1.727
    67.29    1.631   1.744   1.761   1.880   1.837   1.811   1.727   1.804   1.815   1.811   1.798   1.742   1.645   1.691   1.753   1.784   1.800   1.873   1.934   1.874   1.844   1.783   1.887   1.931   1.768   1.746   1.729   1.779   1.640   1.628   1.614   1.731   1.728
    63.23    1.613   1.788   1.857   1.915   1.930   1.799   1.752   1.795   1.777   1.862   1.688   1.600   1.646   1.740   1.686   1.679   1.754   1.849   1.914   2.006   1.962   1.922   1.887   1.832   1.602   1.681   1.589   1.614   1.723   1.650   1.673   1.721   1.765
    59.16    1.761   1.810   1.829   1.821   1.819   1.807   1.844   1.789   1.828   1.726   1.568   1.589   1.665   1.700   1.720   1.688   1.738   1.858   1.955   1.834   1.928   1.908   1.798   1.747   1.647   1.673   1.683   1.641   1.654   1.654   1.654   1.607   1.736
    55.10    1.712   1.820   1.762   1.693   1.764   1.749   1.821   1.812   1.759   1.664   1.546   1.621   1.620   1.686   1.716   1.710   1.772   1.892   1.822   1.758   1.896   1.847   1.716   1.657   1.648   1.591   1.615   1.641   1.628   1.714   1.725   1.666   1.694
    51.04    1.717   1.737   1.705   1.718   1.816   1.729   1.758   1.701   1.774   1.713   1.631   1.587   1.654   1.723   1.746   1.748   1.777   1.732   1.780   1.763   1.768   1.756   1.553   1.603   1.637   1.580   1.612   1.652   1.698   1.704   1.662   1.730   1.688
    46.98    1.653   1.652   1.680   1.741   1.859   1.770   1.817   1.693   1.725   1.734   1.684   1.644   1.646   1.643   1.650   1.715   1.740   1.746   1.800   1.695   1.762   1.637   1.604   1.569   1.704   1.675   1.665   1.568   1.710   1.642   1.694   1.750   1.747
    42.91    1.627   1.642   1.775   1.848   1.868   1.863   1.736   1.712   1.675   1.744   1.628   1.598   1.514   1.647   1.659   1.675   1.705   1.640   1.580   1.616   1.595   1.613   1.551   1.629   1.609   1.618   1.618   1.650   1.614   1.598   1.642   1.683   1.653
    38.85    1.679   1.709   1.854   1.865   1.864   1.884   1.708   1.728   1.837   1.819   1.684   1.583   1.545   1.614   1.691   1.714   1.651   1.521   1.567   1.571   1.510   1.553   1.626   1.631   1.592   1.617   1.609   1.698   1.634   1.634   1.684   1.685   1.655
    34.79    1.740   1.678   1.873   1.925   1.887   1.832   1.823   1.723   1.734   1.783   1.748   1.681   1.612   1.631   1.609   1.684   1.670   1.710   1.638   1.612   1.584   1.653   1.616   1.593   1.498   1.508   1.581   1.686   1.674   1.728   1.723   1.709   1.691
    30.73    1.664   1.714   1.793   1.860   1.883   1.854   1.869   1.800   1.762   1.736   1.729   1.693   1.579   1.641   1.563   1.658   1.699   1.716   1.697   1.543   1.499   1.559   1.529   1.467   1.553   1.524   1.594   1.626   1.637   1.697   1.626   1.551   1.585
    26.66    1.714   1.699   1.827   1.894   1.857   1.807   1.843   1.835   1.805   1.797   1.715   1.716   1.675   1.651   1.686   1.664   1.664   1.699   1.638   1.654   1.612   1.485   1.556   1.580   1.640   1.603   1.627   1.550   1.661   1.588   1.614   1.673   1.668
    22.60    1.749   1.817   1.817   1.825   1.814   1.921   1.946   1.926   1.838   1.739   1.769   1.763   1.714   1.631   1.735   1.774   1.704   1.665   1.697   1.642   1.674   1.611   1.641   1.665   1.560   1.516   1.591   1.643   1.630   1.669   1.666   1.619   1.699

   Height   Standard deviation at grid points for the v component:
   152.60    1.364   1.397   1.408   1.406   1.323   1.356   1.315   1.327   1.365   1.380   1.355   1.341   1.327   1.294   1.274   1.310   1.257   1.279   1.263   1.344   1.279   1.283   1.371   1.388   1.405   1.433   1.440   1.401   1.368   1.399   1.363   1.388   1.336
   148.54    1.384   1.365   1.340   1.434   1.427   1.385   1.334   1.387   1.482   1.369   1.384   1.323   1.301   1.287   1.280   1.237   1.270   1.269   1.214   1.257   1.325   1.282   1.285   1.333   1.349   1.379   1.302   1.361   1.367   1.380   1.352   1.395   1.332
   144.48    1.412   1.375   1.414   1.421   1.372   1.352   1.362   1.420   1.431   1.422   1.344   1.379   1.306   1.269   1.300   1.195   1.285   1.219   1.261   1.223   1.259   1.203   1.232   1.243   1.282   1.320   1.332   1.236   1.316   1.339   1.344   1.351   1.283
   140.41    1.409   1.420   1.425   1.357   1.365   1.441   1.382   1.381   1.405   1.457   1.378   1.327   1.287   1.351   1.305   1.269   1.240   1.258   1.310   1.235   1.261   1.203   1.199   1.190   1.223   1.275   1.292   1.226   1.276   1.337   1.292   1.261   1.255
   136.35    1.414   1.425   1.391   1.348   1.367   1.399   1.368   1.346   1.366   1.375   1.368   1.293   1.272   1.352   1.297   1.283   1.254   1.231   1.239   1.266   1.247   1.163   1.146   1.116   1.202   1.261   1.266   1.182   1.255   1.305   1.322   1.233   1.243
   132.29    1.358   1.319   1.321   1.318   1.380   1.359   1.302   1.312   1.323   1.319   1.311   1.346   1.297   1.256   1.276   1.264   1.228   1.224   1.215   1.226   1.225   1.173   1.137   1.143   1.243   1.285   1.248   1.199   1.209   1.245   1.251   1.259   1.183
   128.23    1.378   1.336   1.319   1.321   1.353   1.311   1.345   1.324   1.320   1.283   1.251   1.247   1.290   1.273   1.284   1.237   1.203   1.197   1.234   1.222   1.168   1.141   1.234   1.175   1.273   1.251   1.210   1.229   1.238   1.170   1.218   1.181   1.143
   124.16    1.358   1.344   1.295   1.312   1.290   1.318   1.354   1.291   1.255   1.244   1.241   1.272   1.221   1.212   1.260   1.235   1.214   1.136   1.142   1.156   1.134   1.130   1.156   1.205   1.267   1.225   1.245   1.217   1.236   1.154   1.181   1.145   1.152
   120.10    1.294   1.320   1.308   1.297   1.311   1.363   1.275   1.206   1.141   1.180   1.230   1.217   1.242   1.255   1.228   1.227   1.165   1.176   1.176   1.227   1.127   1.096   1.123   1.221   1.247   1.263   1.195   1.216   1.172   1.151   1.152   1.104   1.160
   116.04    1.242   1.281   1.271   1.286   1.301   1.339   1.277   1.235   1.179   1.198   1.163   1.192   1.187   1.185   1.222   1.191   1.170   1.134   1.164   1.216   1.186   1.161   1.200   1.219   1.201   1.226   1.200   1.195   1.231   1.238   1.189   1.093   1.125
   111.98    1.237   1.244   1.335   1.302   1.320   1.262   1.195   1.252   1.246   1.194   1.151   1.231   1.195   1.178   1.199   1.168   1.181   1.109   1.121   1.158   1.252   1.212   1.185   1.221   1.206   1.195   1.193   1.152   1.206   1.218   1.135   1.089   1.135
   107.91    1.233   1.231   1.274   1.275   1.257   1.218   1.210   1.263   1.243   1.199   1.228   1.194   1.197   1.199   1.212   1.195   1.131   1.141   1.129   1.157   1.210   1.264   1.226   1.234   1.250   1.245   1.224   1.162   1.158   1.138   1.158   1.144   1.123
   103.85    1.302   1.289   1.245   1.238   1.221   1.217   1.277   1.262   1.232   1.243   1.178   1.153   1.157   1.138   1.209   1.141   1.101   1.171   1.137   1.199   1.214   1.227   1.229   1.231   1.222   1.218   1.220   1.186   1.159   1.113   1.138   1.141   1.108
    99.79    1.289   1.319   1.301   1.297   1.195   1.268   1.317   1.298   1.270   1.257   1.246   1.141   1.171   1.171   1.166   1.164   1.169   1.218   1.213   1.186   1.174   1.173   1.180   1.184   1.247   1.228   1.219   1.210   1.168   1.161   1.201   1.116   1.136
    95.73    1.285   1.268   1.291   1.268   1.238   1.264   1.274   1.345   1.292   1.239   1.247   1.227   1.205   1.203   1.202   1.195   1.137   1.199   1.231   1.178   1.199   1.154   1.221   1.256   1.257   1.239   1.253   1.260   1.213   1.195   1.192   1.154   1.147
    91.66    1.293   1.363   1.294   1.252   1.286   1.286   1.293   1.274   1.294   1.269   1.281   1.215   1.154   1.190   1.127   1.171   1.158   1.173   1.261   1.236   1.213   1.179   1.208   1.291   1.279   1.187   1.194   1.219   1.185   1.189   1.168   1.166   1.153
    87.60    1.337   1.316   1.319   1.251   1.305   1.302   1.301   1.321   1.266   1.327   1.371   1.250   1.199   1.253   1.217   1.159   1.180   1.211   1.326   1.303   1.291   1.234   1.203   1.276   1.294   1.249   1.251   1.268   1.182   1.190   1.269   1.253   1.257
    83.54    1.272   1.313   1.394   1.365   1.387   1.324   1.294   1.353   1.360   1.331   1.316   1.232   1.233   1.268   1.285   1.194   1.193   1.262   1.309   1.248   1.276   1.264   1.271   1.268   1.333   1.310   1.313   1.304   1.249   1.287   1.280   1.308   1.256
    79.48    1.264   1.329   1.381   1.391   1.347   1.298   1.353   1.333   1.337   1.284   1.274   1.250   1.261   1.271   1.264   1.215   1.223   1.290   1.311   1.271   1.278   1.365   1.333   1.267   1.294   1.330   1.341   1.311   1.359   1.336   1.314   1.246   1.263
    75.41    1.326   1.354   1.385   1.403   1.333   1.293   1.282   1.280   1.293   1.280   1.249   1.255   1.266   1.259   1.289   1.267   1.315   1.270   1.324   1.300   1.381   1.315   1.320   1.296   1.337   1.277   1.326   1.367   1.304   1.299   1.301   1.202   1.198
    71.35    1.379   1.391   1.353   1.399   1.371   1.311   1.312   1.275   1.279   1.321   1.295   1.251   1.270   1.237   1.221   1.302   1.318   1.248   1.284   1.286   1.319   1.322   1.264   1.291   1.263   1.301   1.285   1.310   1.370   1.249   1.231   1.223   1.226
    67.29    1.375   1.363   1.371   1.421   1.383   1.346   1.303   1.260   1.320   1.306   1.288   1.281   1.271   1.284   1.280   1.304   1.268   1.275   1.238   1.257   1.275   1.263   1.268   1.213   1.242   1.257   1.232   1.224   1.294   1.269   1.244   1.179   1.151
    63.23    1.301   1.287   1.332   1.341   1.361   1.302   1.350   1.329   1.339   1.306   1.298   1.312   1.293   1.290   1.257   1.237   1.201   1.248   1.212   1.241   1.272   1.225   1.228   1.208   1.221   1.246   1.158   1.160   1.209   1.181   1.194   1.200   1.191
    59.16    1.266   1.222   1.271   1.300   1.329   1.322   1.338   1.374   1.452   1.399   1.326   1.318   1.354   1.260   1.266   1.238   1.246   1.243   1.299   1.290   1.267   1.228   1.236   1.206   1.204   1.202   1.144   1.192   1.193   1.204   1.207   1.195   1.160
    55.10    1.247   1.284   1.309   1.286   1.291   1.325   1.348   1.383   1.440   1.476   1.446   1.407   1.346   1.307   1.219   1.193   1.229   1.305   1.342   1.285   1.267   1.251   1.223   1.220   1.205   1.223   1.242   1.180   1.211   1.262   1.234   1.266   1.203
    51.04    1.321   1.314   1.326   1.255   1.300   1.316   1.326   1.356   1.426   1.430   1.457   1.444   1.399   1.357   1.266   1.289   1.314   1.322   1.329   1.268   1.307   1.263   1.261   1.209   1.212   1.288   1.302   1.278   1.300   1.276   1.278   1.262   1.186
    46.98    1.317   1.347   1.277   1.267   1.261   1.283   1.340   1.383   1.404   1.388   1.410   1.435   1.340   1.418   1.341   1.301   1.325   1.351   1.327   1.264   1.289   1.210   1.186   1.255   1.256   1.260   1.306   1.286   1.290   1.322   1.255   1.246   1.238
    42.91    1.320   1.299   1.284   1.238   1.283   1.309   1.296   1.322   1.389   1.421   1.371   1.408   1.400   1.386   1.368   1.338   1.339   1.309   1.323   1.335   1.262   1.240   1.231   1.226   1.267   1.300   1.288   1.306   1.253   1.254   1.233   1.277   1.235
    38.85    1.311   1.290   1.286   1.268   1.289   1.283   1.245   1.319   1.345   1.428   1.408   1.430   1.375   1.338   1.376   1.363   1.363   1.311   1.321   1.282   1.296   1.310   1.217   1.247   1.254   1.213   1.299   1.371   1.265   1.228   1.192   1.202   1.236
    34.79    1.311   1.318   1.297   1.305   1.318   1.318   1.329   1.320   1.376   1.400   1.399   1.416   1.362   1.328   1.325   1.331   1.328   1.280   1.272   1.321   1.356   1.328   1.247   1.246   1.245   1.258   1.302   1.301   1.337   1.314   1.219   1.213   1.216
    30.73    1.349   1.283   1.293   1.308   1.329   1.308   1.303   1.286   1.341   1.391   1.407   1.398   1.381   1.312   1.292   1.300   1.295   1.295   1.336   1.353   1.356   1.335   1.248   1.245   1.209   1.276   1.285   1.355   1.358   1.310   1.255   1.250   1.202
    26.66    1.314   1.271   1.305   1.332   1.357   1.328   1.312   1.322   1.409   1.343   1.337   1.384   1.356   1.315   1.311   1.320   1.340   1.283   1.367   1.346   1.328   1.345   1.329   1.267   1.261   1.256   1.313   1.334   1.309   1.353   1.255   1.210   1.180
    22.60    1.333   1.274   1.317   1.296   1.315   1.305   1.311   1.345   1.336   1.342   1.362   1.348   1.307   1.298   1.374   1.310   1.307   1.317   1.318   1.377   1.375   1.398   1.306   1.297   1.257   1.301   1.287   1.309   1.321   1.356   1.252   1.203   1.222

   Height   Standard deviation at grid points for the w component:
   152.60    1.014   1.025   1.059   1.070   1.066   1.029   1.008   1.025   0.987   1.027   1.012   1.025   1.043   1.053   1.032   1.075   1.083   1.035   1.084   1.081   1.049   1.075   1.063   1.056   1.081   1.101   1.113   1.122   1.103   1.143   1.158   1.158   1.095
   148.54    1.061   1.042   1.035   1.043   1.078   1.071   1.039   1.054   1.047   1.038   1.021   1.028   1.039   1.052   1.059   1.084   1.087   1.017   1.090   1.089   1.041   1.090   1.102   1.092   1.130   1.138   1.173   1.135   1.131   1.127   1.146   1.167   1.158
   144.48    1.100   1.064   1.037   1.044   1.057   1.057   1.025   1.008   1.057   1.068   1.035   1.042   1.066   1.100   1.084   1.093   1.066   1.066   1.079   1.116   1.102   1.096   1.104   1.103   1.126   1.111   1.117   1.122   1.123   1.106   1.119   1.145   1.194
   140.41    1.040   1.071   1.064   1.018   1.008   1.018   1.096   1.025   1.042   1.036   1.044   1.063   1.080   1.112   1.115   1.092   1.087   1.042   1.086   1.109   1.141   1.151   1.114   1.073   1.071   1.111   1.132   1.133   1.088   1.086   1.120   1.129   1.180
   136.35    1.082   1.080   1.054   1.003   1.031   1.047   1.066   1.044   1.081   1.045   1.011   1.035   1.061   1.092   1.081   1.060   1.093   1.085   1.127   1.120   1.199   1.168   1.142   1.114   1.103   1.125   1.120   1.142   1.081   1.086   1.116   1.141   1.091
   132.29    1.039   1.067   1.081   1.050   1.031   1.042   1.035   1.098   1.053   1.050   1.046   1.022   1.085   1.101   1.119   1.110   1.081   1.111   1.133   1.151   1.167   1.159   1.109   1.110   1.167   1.134   1.080   1.098   1.094   1.106   1.155   1.110   1.093
   128.23    1.085   1.067   1.050   1.043   0.997   1.030   1.000   1.041   1.046   1.058   1.046   1.035   1.078   1.100   1.125   1.169   1.165   1.126   1.111   1.138   1.143   1.128   1.128   1.144   1.123   1.118   1.093   1.111   1.091   1.137   1.104   1.127   1.125
   124.16    1.046   1.065   1.077   1.035   1.038   1.046   1.009   1.034   1.049   1.099   1.061   1.057   1.042   1.102   1.131   1.108   1.157   1.133   1.094   1.089   1.125   1.107   1.095   1.104   1.117   1.093   1.126   1.100   1.064   1.091   1.122   1.110   1.121
   120.10    1.106   1.126   1.100   1.065   1.055   1.053   1.069   1.027   1.062   1.076   1.076   1.067   1.071   1.086   1.126   1.119   1.129   1.092   1.082   1.105   1.101   1.067   1.072   1.090   1.105   1.092   1.120   1.100   1.053   1.076   1.103   1.068   1.087
   116.04    1.087   1.063   1.084   1.070   1.031   1.046   1.047   1.025   1.060   1.083   1.075   1.069   1.084   1.028   1.082   1.096   1.038   1.073   1.074   1.110   1.073   1.041   1.064   1.107   1.109   1.094   1.081   1.065   1.070   1.091   1.120   1.080   1.062
   111.98    1.094   1.057   1.072   1.067   1.027   1.074   1.059   1.016   1.047   1.082   1.090   1.023   1.038   1.044   1.048   1.016   1.031   1.039   1.068   1.067   1.049   1.038   1.083   1.130   1.089   1.103   1.085   1.108   1.127   1.080   1.057   1.031   1.026
   107.91    1.062   1.076   1.054   1.059   1.044   1.047   1.052   1.036   1.031   1.029   1.034   1.039   1.012   1.004   1.079   1.065   1.047   1.045   1.024   1.018   0.991   1.000   1.053   1.100   1.092   1.067   1.070   1.107   1.059   1.016   1.037   1.020   1.016
   103.85    1.076   1.056   1.045   1.039   1.024   1.021   1.030   1.001   0.998   1.007   1.058   1.065   1.054   1.038   1.084   1.061   1.056   1.048   1.051   0.993   0.997   0.973   1.051   1.080   1.096   1.108   1.047   1.041   1.046   1.008   1.033   1.004   0.998
    99.79    1.072   1.023   1.051   1.055   1.040   1.048   1.015   1.025   0.977   1.011   1.029   1.096   1.081   1.087   1.079   1.076   1.028   1.092   1.118   1.019   0.999   1.032   1.034   1.055   1.051   1.088   1.043   1.027   1.028   1.017   1.081   1.051   0.996
    95.73    1.079   1.033   1.017   1.048   1.050   0.998   1.038   1.014   1.003   1.020   1.043   1.079   1.072   1.099   1.104   1.084   1.091   1.092   1.110   1.086   1.030   1.041   1.031   1.028   1.050   1.069   1.037   1.027   1.037   1.075   1.028   1.042   1.051
    91.66    1.077   1.082   1.050   1.026   1.023   1.038   1.039   1.036   1.033   1.028   1.024   1.057   1.064   1.041   1.114   1.050   1.033   1.083   1.063   1.054   1.042   1.037   1.035   1.044   1.063   1.062   1.031   1.047   1.049   1.042   1.024   1.030   1.027
    87.60    1.050   1.058   1.062   1.049   1.068   1.066   1.029   1.046   1.021   1.009   1.021   1.072   1.038   1.098   1.098   1.074   1.039   1.042   1.046   1.018   1.026   1.017   1.066   1.056   1.011   1.028   1.010   1.053   1.064   1.031   1.052   1.041   0.995
    83.54    1.014   1.021   1.069   1.103   1.105   1.084   1.095   1.036   1.096   1.029   1.022   1.072   1.080   1.109   1.119   1.067   1.039   1.012   0.991   0.996   1.005   1.011   1.034   1.017   1.041   1.025   1.051   1.048   1.015   1.016   1.021   1.025   1.043
    79.48    1.047   1.076   1.104   1.109   1.079   1.105   1.097   1.057   1.058   1.045   1.001   1.042   1.093   1.090   1.051   1.071   1.026   0.994   0.964   0.969   0.941   1.004   0.998   1.036   1.004   1.025   1.025   1.040   1.005   1.014   1.021   1.033   1.042
    75.41    1.078   1.056   1.091   1.107   1.095   1.076   1.085   1.035   1.016   1.049   1.044   1.048   1.075   1.059   1.039   1.064   1.015   1.003   0.992   0.982   0.983   1.008   1.066   1.054   1.010   1.033   1.041   1.028   1.028   1.021   1.024   1.010   1.024
    71.35    1.087   1.079   1.087   1.092   1.084   1.103   1.074   1.033   1.037   1.091   1.072   1.016   1.050   1.056   1.022   1.049   1.065   1.031   1.038   1.051   0.999   1.023   0.990   1.045   1.045   1.067   1.034   1.007   0.996   1.035   1.066   1.069   1.049
    67.29    1.084   1.069   1.025   1.097   1.106   1.057   1.037   1.047   1.042   1.033   1.074   1.063   1.007   1.032   1.028   1.025   1.050   1.044   1.039   1.018   1.014   1.042   0.994   1.035   1.059   1.054   1.032   0.991   1.006   1.050   1.082   1.103   1.078
    63.23    1.066   1.062   1.039   1.060   1.098   1.048   1.017   1.032   1.061   1.002   0.991   1.031   1.040   1.056   1.041   1.035   1.053   1.033   1.007   1.040   1.034   1.049   1.080   1.072   1.057   1.024   1.004   1.003   0.994   1.025   1.056   1.100   1.064
    59.16    1.055   1.081   1.018   1.038   1.062   1.072   1.057   1.042   1.060   0.982   0.997   0.989   1.036   1.005   1.041   1.029   1.040   1.017   0.999   1.000   1.007   1.043   1.031   1.063   1.021   1.033   1.038   1.031   1.055   1.054   1.052   1.103   1.041
    55.10    1.103   1.052   1.054   1.041   1.062   1.067   1.022   1.021   1.033   1.012   0.994   1.011   1.013   1.040   1.008   1.025   1.023   1.075   1.020   0.982   1.033   1.075   1.063   1.067   1.035   1.056   1.067   1.092   1.081   1.069   1.049   1.076   1.080
    51.04    1.076   1.080   1.015   1.052   1.059   1.062   1.037   1.028   1.031   1.019   1.009   1.049   1.007   1.025   1.011   1.003   1.031   1.015   1.027   1.021   1.053   1.043   1.080   1.082   1.049   1.051   1.033   1.016   1.074   1.054   1.038   1.088   1.079
    46.98    1.051   1.052   1.014   1.043   1.065   1.050   1.014   1.008   1.020   1.039   0.997   1.050   1.038   1.015   1.041   1.029   1.043   1.044   1.069   1.017   1.057   1.036   1.032   1.035   1.066   1.084   1.059   1.035   1.069   1.078   1.039   1.047   1.113
    42.91    1.025   1.052   1.031   1.022   1.038   1.028   1.047   1.053   1.046   1.042   1.059   1.068   1.036   1.071   1.065   1.025   1.010   1.036   1.018   1.026   1.049   1.026   1.036   1.028   1.022   1.025   1.049   1.060   1.050   1.034   1.063   1.062   1.061
    38.85    1.019   1.026   1.027   1.053   1.040   0.987   1.024   1.111   1.064   1.023   1.039   1.035   1.064   1.027   1.032   1.001   1.020   1.045   1.004   1.006   1.045   1.018   1.016   1.044   1.016   1.043   1.061   1.034   1.029   1.055   1.036   1.085   1.076
    34.79    1.004   1.035   1.055   1.028   0.995   0.990   1.018   1.046   1.043   0.994   0.995   1.031   1.055   1.036   1.065   1.062   1.032   1.016   0.982   1.022   1.033   1.035   1.027   1.051   1.045   1.069   1.059   0.995   1.030   1.023   1.039   1.084   1.074
    30.73    1.028   1.013   1.004   0.999   0.974   1.023   1.008   1.032   1.042   1.025   1.011   1.033   1.057   1.015   1.040   1.059   1.036   1.042   1.012   1.042   1.029   1.057   1.058   1.056   1.034   1.029   1.011   1.006   1.021   1.037   1.049   1.059   1.058
    26.66    0.990   1.024   1.045   1.003   1.027   1.053   1.033   1.025   1.000   1.033   1.020   1.050   1.021   1.004   1.038   1.050   1.014   1.005   1.007   1.020   1.036   1.050   1.056   1.021   1.007   1.010   1.033   1.013   1.059   1.047   1.048   1.042   1.072
    22.60    1.018   0.999   0.995   1.021   0.997   1.026   1.018   1.014   0.997   1.005   1.023   1.031   1.007   0.997   1.010   1.024   0.999   1.000   1.024   1.011   1.019   1.042   1.052   1.029   1.018   1.022   1.033   1.040   1.051   1.033   1.050   1.057   1.063

   Mean standard deviation across all grid points:
      u component:    1.727 m/s
      v component:    1.275 m/s
      w component:    1.054 m/s


U-component (X) statistics from the hub grid point:

   Mean =  16.0000 m/s
   TI   =  10.8019 %

Nyquist frequency of turbulent wind field =        10.000 Hz


Processing complete.  357.7 CPU seconds used.
