
This summary file was generated by TurbSim (v1.06.00, 21-Sep-2012) on 24-Sep-2020 at 17:45:45.


Runtime Options:

  65432154  Random seed #1
    RANLUX  Type of random number generator
         F  Output binary HH turbulence parameters?
         F  Output formatted turbulence parameters?
         F  Output AeroDyn HH files?
         T  Output AeroDyn FF files?
         F  Output BLADED FF files?
         T  Output tower data?
         F  Output formatted FF files?
         F  Output coherent turbulence time step file?
         T  Clockwise rotation when looking downwind?
 0 -  NONE  IEC turbulence models scaled to exact specified standard deviation


Turbine/Model Specifications:

        33  Vertical grid-point matrix dimension
        33  Horizontal grid-point matrix dimension
     0.050  Time step [seconds]
  3610.000  Analysis time [seconds]
  3610.000  Usable output time [seconds]
    87.600  Hub height [m]
   130.000  Grid height [m]
   130.000  Grid width [m]
     0.000  Vertical flow angle [degrees]
     0.000  Horizontal flow angle [degrees]


Meteorological Boundary Conditions:

    SMOOTH  RISO Smooth Terrain spectral model
       N/A  IEC standard
       N/A  IEC turbulence characteristic
       N/A  IEC turbulence type
       N/A  IEC Extreme Turbulence Model (ETM) "c" parameter [m/s]
       IEC  Wind profile type
    87.600  Reference height [m]
    10.000  Reference wind speed [m/s]
       N/A  Jet height [m]
     0.143  Power law exponent
     0.010  Surface roughness length [m]


Non-IEC Meteorological Boundary Conditions:

    45.000  Site latitude [degrees]
     0.050  Gradient Richardson number
     0.425  Friction or shear velocity [m/s]
       N/A  Mixing layer depth [m]
    -0.181  Mean hub u'w' Reynolds stress
       N/A  Mean hub u'v' Reynolds stress
       N/A  Mean hub v'w' Reynolds stress
(   10.000,  0.00    )  u-component coherence parameters
(    7.500,  0.00    )  v-component coherence parameters
(    7.500,  0.00    )  w-component coherence parameters
     0.000  Coherence exponent


You have requested that the following file(s) be generated:

   unsteady_tmp_10.bts (AeroDyn/TurbSim full-field wind file)


Turbulence Simulation Scaling Parameter Summary:

   Turbulence model used                            =  RISO Smooth Terrain
   Gradient Richardson number                       =    0.050
   Monin-Obukhov (M-O) z/L parameter                =    0.067
   Monin-Obukhov (M-O) length scale                 = 1314.000 m
   Mean wind speed at hub height                    =   10.000 m/s

   Wind profile type                                =  Power law on rotor disk, logarithmic elsewhere
   Power law exponent                               =    0.143
   Mean shear across rotor disk                     =    0.018 (m/s)/m
   Assumed rotor diameter                           =  130.000 m
   Surface roughness length                         =    0.010 m

   Number of time steps in the FFT                  =    72576
   Number of time steps output                      =    72460


Mean Flow Angles:

   Vertical   =   0.0 degrees
   Horizontal =   0.0 degrees

Mean Wind Speed Profile:

   Height    Wind Speed   Horizontal Angle  U-comp (X)   V-comp (Y)   W-comp (Z)
     (m)        (m/s)         (degrees)       (m/s)        (m/s)        (m/s)   
   ------    ----------   ----------------  ----------   ----------   ----------
    152.6       10.61            0.00         10.61         0.00         0.00
    148.5       10.78            0.00         10.78         0.00         0.00
    144.5       10.74            0.00         10.74         0.00         0.00
    140.4       10.70            0.00         10.70         0.00         0.00
    136.4       10.65            0.00         10.65         0.00         0.00
    132.3       10.61            0.00         10.61         0.00         0.00
    128.2       10.56            0.00         10.56         0.00         0.00
    124.2       10.51            0.00         10.51         0.00         0.00
    120.1       10.46            0.00         10.46         0.00         0.00
    116.0       10.41            0.00         10.41         0.00         0.00
    112.0       10.36            0.00         10.36         0.00         0.00
    107.9       10.30            0.00         10.30         0.00         0.00
    103.9       10.25            0.00         10.25         0.00         0.00
     99.8       10.19            0.00         10.19         0.00         0.00
     95.7       10.13            0.00         10.13         0.00         0.00
     91.7       10.07            0.00         10.07         0.00         0.00
     87.6       10.00            0.00         10.00         0.00         0.00
     83.5        9.93            0.00          9.93         0.00         0.00
     79.5        9.86            0.00          9.86         0.00         0.00
     75.4        9.79            0.00          9.79         0.00         0.00
     71.4        9.71            0.00          9.71         0.00         0.00
     67.3        9.63            0.00          9.63         0.00         0.00
     63.2        9.54            0.00          9.54         0.00         0.00
     59.2        9.45            0.00          9.45         0.00         0.00
     55.1        9.36            0.00          9.36         0.00         0.00
     51.0        9.26            0.00          9.26         0.00         0.00
     47.0        9.15            0.00          9.15         0.00         0.00
     42.9        9.03            0.00          9.03         0.00         0.00
     38.9        8.90            0.00          8.90         0.00         0.00
     34.8        8.76            0.00          8.76         0.00         0.00
     30.7        8.61            0.00          8.61         0.00         0.00
     26.7        8.44            0.00          8.44         0.00         0.00
     22.6        8.24            0.00          8.24         0.00         0.00
     18.5        8.29            0.00          8.29         0.00         0.00
     14.5        8.02            0.00          8.02         0.00         0.00
     10.4        7.65            0.00          7.65         0.00         0.00
      6.4        7.11            0.00          7.11         0.00         0.00
      2.3        5.98            0.00          5.98         0.00         0.00


Harvested Random Seeds after Generation of the Random Numbers:

    106611632 K1
            1 K2


Scaling statistics from the hub grid point:

   Cross-Component  Scaling Factor
   ---------------  --------------
   u'w'               -0.11815E+00
   u'v'                0.00000E+00
   v'w'                0.00000E+00


Hub-Height Simulated Turbulence Statistical Summary:

   Type of Wind        Min (m/s)   Mean (m/s)    Max (m/s)  Sigma (m/s)       TI (%)
   ----------------    ---------   ----------    ---------  -----------       ------
   Longitudinal (u)         5.88        10.00        13.67        1.107       11.066
   Lateral (v)             -3.48         0.00         3.06        0.847        8.469
   Vertical (w)            -2.81         0.00         2.53        0.677        6.774
   U component              5.88        10.00        13.67        1.107       11.066
   V component             -3.48         0.00         3.06        0.847        8.469
   W component             -2.81         0.00         2.53        0.677        6.774
   Horizontal (U&V)         5.89        10.04        13.69        1.106       11.020
   Total                    5.91        10.06        13.70        1.103       10.965

                       Min Reynolds     Mean Reynolds    Max Reynolds    Correlation
   Product             Stress (m/s)^2   Stress (m/s)^2   Stress (m/s)^2  Coefficient
   ----------------    --------------   --------------   --------------  -----------
   u'w'                     -6.950            -0.181             4.299        -0.241
   u'v'                     -6.367            -0.042             6.396        -0.044
   v'w'                     -4.614             0.007             4.586         0.013


   Friction Velocity (Ustar)  =      0.425 m/s
   Maximum Instantaneous TKE  =      8.702 (m/s)^2
   Maximum Instantaneous CTKE =      3.928 (m/s)^2


Grid Point Variance Summary:

   Y-coord  -65.00  -60.94  -56.88  -52.81  -48.75  -44.69  -40.62  -36.56  -32.50  -28.44  -24.38  -20.31  -16.25  -12.19   -8.12   -4.06    0.00    4.06    8.12   12.19   16.25   20.31   24.38   28.44   32.50   36.56   40.62   44.69   48.75   52.81   56.88   60.94   65.00

   Height   Standard deviation at grid points for the u component:
   152.60    1.122   1.115   1.142   1.133   1.147   1.182   1.173   1.166   1.179   1.170   1.158   1.140   1.160   1.121   1.120   1.118   1.117   1.138   1.151   1.138   1.127   1.109   1.098   1.098   1.086   1.089   1.088   1.088   1.060   1.054   1.049   1.042   1.042
   148.54    1.120   1.127   1.152   1.133   1.170   1.204   1.192   1.191   1.189   1.177   1.192   1.181   1.177   1.141   1.146   1.120   1.132   1.136   1.157   1.138   1.137   1.131   1.124   1.091   1.090   1.092   1.080   1.075   1.057   1.038   1.033   1.027   1.048
   144.48    1.113   1.138   1.140   1.127   1.165   1.199   1.197   1.209   1.200   1.203   1.202   1.204   1.157   1.174   1.161   1.150   1.133   1.137   1.138   1.148   1.144   1.157   1.126   1.100   1.076   1.081   1.101   1.075   1.056   1.046   1.040   1.053   1.044
   140.41    1.124   1.156   1.154   1.130   1.164   1.208   1.218   1.208   1.219   1.203   1.200   1.185   1.180   1.169   1.173   1.151   1.151   1.142   1.135   1.134   1.146   1.129   1.107   1.101   1.090   1.102   1.077   1.079   1.064   1.053   1.070   1.084   1.050
   136.35    1.124   1.139   1.153   1.145   1.177   1.193   1.208   1.228   1.219   1.193   1.183   1.194   1.190   1.174   1.169   1.144   1.143   1.148   1.145   1.151   1.147   1.131   1.103   1.087   1.088   1.106   1.076   1.075   1.077   1.060   1.063   1.081   1.078
   132.29    1.129   1.134   1.160   1.148   1.180   1.206   1.212   1.217   1.209   1.183   1.198   1.180   1.188   1.167   1.166   1.144   1.138   1.144   1.150   1.139   1.128   1.119   1.090   1.087   1.095   1.096   1.067   1.070   1.069   1.058   1.058   1.067   1.077
   128.23    1.147   1.145   1.154   1.169   1.194   1.219   1.230   1.207   1.199   1.184   1.185   1.181   1.183   1.172   1.157   1.135   1.136   1.140   1.151   1.156   1.145   1.122   1.105   1.086   1.086   1.079   1.079   1.065   1.065   1.062   1.052   1.065   1.065
   124.16    1.148   1.165   1.182   1.178   1.198   1.214   1.206   1.184   1.178   1.184   1.187   1.194   1.191   1.179   1.165   1.138   1.117   1.125   1.118   1.128   1.144   1.129   1.120   1.106   1.110   1.085   1.079   1.045   1.058   1.050   1.058   1.081   1.077
   120.10    1.153   1.153   1.161   1.180   1.175   1.183   1.184   1.181   1.174   1.172   1.169   1.196   1.174   1.170   1.146   1.128   1.137   1.120   1.137   1.121   1.138   1.117   1.109   1.101   1.103   1.085   1.068   1.048   1.061   1.073   1.065   1.082   1.104
   116.04    1.135   1.150   1.152   1.173   1.178   1.173   1.184   1.168   1.175   1.165   1.164   1.155   1.172   1.166   1.153   1.125   1.124   1.121   1.124   1.130   1.127   1.117   1.099   1.094   1.087   1.097   1.073   1.068   1.075   1.057   1.069   1.063   1.104
   111.98    1.126   1.136   1.142   1.149   1.153   1.160   1.148   1.164   1.157   1.147   1.147   1.146   1.170   1.168   1.149   1.135   1.131   1.126   1.140   1.149   1.147   1.133   1.091   1.084   1.090   1.088   1.078   1.079   1.076   1.083   1.088   1.088   1.113
   107.91    1.112   1.121   1.145   1.141   1.131   1.135   1.131   1.143   1.158   1.134   1.126   1.139   1.149   1.168   1.158   1.133   1.133   1.117   1.143   1.159   1.152   1.137   1.103   1.096   1.085   1.090   1.076   1.087   1.103   1.097   1.088   1.090   1.100
   103.85    1.141   1.124   1.143   1.123   1.152   1.133   1.136   1.126   1.121   1.131   1.115   1.137   1.130   1.155   1.145   1.136   1.143   1.125   1.141   1.165   1.153   1.150   1.117   1.117   1.091   1.099   1.104   1.097   1.090   1.097   1.082   1.086   1.105
    99.79    1.129   1.131   1.130   1.143   1.141   1.148   1.137   1.114   1.103   1.106   1.103   1.133   1.137   1.140   1.129   1.109   1.124   1.100   1.136   1.145   1.138   1.128   1.131   1.102   1.093   1.084   1.122   1.108   1.080   1.075   1.076   1.089   1.105
    95.73    1.115   1.112   1.127   1.127   1.147   1.132   1.139   1.125   1.110   1.115   1.117   1.130   1.138   1.135   1.122   1.119   1.109   1.114   1.113   1.138   1.130   1.116   1.113   1.121   1.095   1.095   1.091   1.093   1.096   1.104   1.103   1.106   1.129
    91.66    1.104   1.103   1.114   1.125   1.135   1.129   1.132   1.130   1.105   1.112   1.103   1.132   1.151   1.137   1.129   1.123   1.098   1.106   1.097   1.126   1.124   1.119   1.117   1.131   1.113   1.116   1.100   1.089   1.097   1.095   1.116   1.127   1.145
    87.60    1.121   1.113   1.123   1.131   1.132   1.139   1.133   1.127   1.108   1.127   1.125   1.149   1.144   1.138   1.113   1.083   1.107   1.115   1.107   1.124   1.129   1.129   1.123   1.112   1.117   1.110   1.095   1.117   1.090   1.101   1.104   1.102   1.129
    83.54    1.134   1.108   1.125   1.142   1.125   1.136   1.116   1.114   1.095   1.099   1.114   1.122   1.119   1.129   1.131   1.114   1.127   1.122   1.128   1.122   1.139   1.114   1.113   1.120   1.117   1.112   1.093   1.093   1.088   1.079   1.092   1.108   1.122
    79.48    1.138   1.112   1.114   1.117   1.093   1.099   1.097   1.078   1.091   1.121   1.123   1.111   1.113   1.120   1.133   1.136   1.161   1.142   1.141   1.131   1.126   1.130   1.132   1.142   1.127   1.104   1.081   1.074   1.103   1.103   1.108   1.098   1.105
    75.41    1.137   1.117   1.124   1.111   1.104   1.077   1.088   1.090   1.085   1.117   1.116   1.131   1.112   1.116   1.135   1.145   1.131   1.134   1.132   1.139   1.122   1.117   1.122   1.118   1.090   1.087   1.087   1.083   1.110   1.099   1.084   1.106   1.131
    71.35    1.119   1.129   1.127   1.099   1.078   1.080   1.095   1.087   1.105   1.108   1.116   1.130   1.112   1.128   1.141   1.146   1.147   1.128   1.119   1.137   1.144   1.141   1.120   1.108   1.090   1.083   1.081   1.089   1.101   1.091   1.099   1.111   1.128
    67.29    1.117   1.125   1.115   1.114   1.105   1.107   1.092   1.117   1.093   1.110   1.107   1.109   1.112   1.116   1.116   1.138   1.137   1.139   1.145   1.133   1.155   1.125   1.101   1.102   1.092   1.103   1.099   1.098   1.125   1.103   1.093   1.101   1.137
    63.23    1.107   1.103   1.114   1.138   1.120   1.109   1.139   1.146   1.124   1.109   1.113   1.111   1.110   1.129   1.132   1.143   1.138   1.162   1.148   1.150   1.138   1.129   1.124   1.125   1.093   1.089   1.084   1.093   1.110   1.105   1.097   1.102   1.124
    59.16    1.112   1.123   1.118   1.146   1.126   1.114   1.136   1.132   1.131   1.120   1.134   1.132   1.114   1.120   1.116   1.119   1.146   1.166   1.151   1.134   1.139   1.126   1.100   1.120   1.110   1.110   1.094   1.094   1.084   1.099   1.090   1.074   1.097
    55.10    1.123   1.122   1.127   1.117   1.114   1.122   1.135   1.150   1.118   1.115   1.125   1.141   1.125   1.112   1.115   1.144   1.124   1.138   1.142   1.134   1.142   1.127   1.113   1.117   1.103   1.116   1.095   1.102   1.099   1.097   1.089   1.058   1.066
    51.04    1.141   1.138   1.130   1.120   1.109   1.131   1.149   1.125   1.107   1.106   1.109   1.130   1.130   1.131   1.137   1.146   1.132   1.133   1.128   1.114   1.141   1.110   1.120   1.111   1.116   1.099   1.115   1.113   1.127   1.101   1.081   1.073   1.075
    46.98    1.145   1.130   1.121   1.108   1.116   1.134   1.145   1.139   1.105   1.093   1.099   1.133   1.134   1.157   1.141   1.150   1.121   1.133   1.128   1.123   1.107   1.093   1.099   1.109   1.106   1.097   1.122   1.121   1.111   1.109   1.097   1.079   1.061
    42.91    1.151   1.122   1.119   1.113   1.137   1.108   1.119   1.108   1.093   1.105   1.122   1.124   1.154   1.129   1.139   1.138   1.126   1.109   1.114   1.110   1.110   1.104   1.106   1.102   1.107   1.114   1.124   1.131   1.101   1.097   1.094   1.096   1.088
    38.85    1.108   1.111   1.082   1.103   1.090   1.109   1.107   1.112   1.087   1.113   1.145   1.135   1.127   1.136   1.137   1.118   1.106   1.131   1.102   1.101   1.123   1.106   1.097   1.109   1.114   1.114   1.118   1.127   1.123   1.128   1.110   1.093   1.099
    34.79    1.101   1.092   1.098   1.094   1.074   1.080   1.089   1.097   1.094   1.112   1.116   1.156   1.142   1.118   1.140   1.139   1.131   1.141   1.111   1.099   1.121   1.111   1.122   1.118   1.112   1.105   1.121   1.115   1.121   1.121   1.098   1.099   1.069
    30.73    1.092   1.072   1.083   1.093   1.079   1.073   1.072   1.096   1.088   1.108   1.130   1.135   1.144   1.139   1.152   1.146   1.149   1.127   1.118   1.124   1.137   1.118   1.099   1.111   1.123   1.126   1.115   1.124   1.123   1.112   1.095   1.095   1.082
    26.66    1.121   1.097   1.094   1.094   1.100   1.071   1.080   1.105   1.112   1.112   1.131   1.125   1.142   1.143   1.139   1.135   1.133   1.119   1.113   1.111   1.127   1.123   1.127   1.119   1.113   1.139   1.134   1.129   1.113   1.105   1.102   1.115   1.099
    22.60    1.107   1.100   1.070   1.068   1.074   1.081   1.110   1.122   1.127   1.123   1.144   1.114   1.138   1.125   1.091   1.125   1.128   1.120   1.121   1.117   1.128   1.119   1.122   1.113   1.122   1.113   1.123   1.109   1.101   1.113   1.122   1.099   1.116

   Height   Standard deviation at grid points for the v component:
   152.60    0.820   0.804   0.810   0.807   0.817   0.808   0.808   0.812   0.828   0.834   0.839   0.843   0.834   0.839   0.820   0.815   0.818   0.822   0.826   0.832   0.839   0.838   0.822   0.814   0.829   0.836   0.834   0.837   0.829   0.812   0.811   0.820   0.823
   148.54    0.811   0.822   0.811   0.810   0.815   0.813   0.811   0.813   0.825   0.835   0.834   0.834   0.831   0.841   0.825   0.821   0.816   0.814   0.815   0.821   0.830   0.826   0.824   0.819   0.826   0.832   0.836   0.839   0.834   0.820   0.811   0.817   0.821
   144.48    0.825   0.831   0.822   0.821   0.813   0.821   0.820   0.820   0.832   0.834   0.816   0.820   0.829   0.836   0.817   0.798   0.802   0.813   0.803   0.812   0.824   0.815   0.814   0.816   0.815   0.836   0.836   0.832   0.831   0.825   0.812   0.813   0.816
   140.41    0.825   0.833   0.835   0.827   0.829   0.818   0.831   0.823   0.836   0.828   0.833   0.822   0.823   0.828   0.803   0.797   0.819   0.813   0.802   0.814   0.825   0.827   0.825   0.819   0.826   0.835   0.835   0.835   0.836   0.820   0.822   0.822   0.796
   136.35    0.838   0.834   0.827   0.826   0.825   0.840   0.845   0.852   0.833   0.829   0.834   0.820   0.827   0.829   0.811   0.799   0.793   0.812   0.816   0.812   0.816   0.821   0.824   0.829   0.819   0.826   0.840   0.839   0.829   0.818   0.816   0.823   0.801
   132.29    0.836   0.838   0.835   0.832   0.824   0.843   0.843   0.844   0.841   0.840   0.840   0.833   0.825   0.833   0.827   0.810   0.795   0.808   0.815   0.836   0.824   0.830   0.830   0.839   0.822   0.815   0.836   0.826   0.824   0.826   0.822   0.828   0.811
   128.23    0.838   0.854   0.849   0.856   0.837   0.832   0.832   0.846   0.845   0.839   0.841   0.849   0.834   0.834   0.842   0.822   0.814   0.805   0.808   0.825   0.817   0.833   0.813   0.815   0.809   0.819   0.832   0.821   0.824   0.819   0.826   0.821   0.803
   124.16    0.837   0.851   0.852   0.845   0.843   0.842   0.827   0.831   0.852   0.855   0.855   0.845   0.843   0.845   0.841   0.830   0.821   0.814   0.797   0.820   0.828   0.817   0.807   0.808   0.820   0.818   0.813   0.825   0.827   0.832   0.835   0.819   0.802
   120.10    0.851   0.856   0.861   0.849   0.855   0.842   0.829   0.848   0.848   0.861   0.847   0.857   0.862   0.843   0.840   0.835   0.814   0.806   0.810   0.829   0.828   0.834   0.810   0.810   0.814   0.805   0.801   0.811   0.826   0.823   0.831   0.801   0.809
   116.04    0.857   0.861   0.848   0.862   0.849   0.853   0.852   0.852   0.852   0.847   0.855   0.845   0.842   0.850   0.851   0.845   0.824   0.823   0.821   0.820   0.825   0.820   0.817   0.801   0.800   0.808   0.809   0.806   0.809   0.804   0.811   0.805   0.799
   111.98    0.854   0.857   0.852   0.871   0.871   0.851   0.855   0.853   0.848   0.854   0.848   0.852   0.855   0.849   0.850   0.844   0.840   0.839   0.834   0.820   0.820   0.807   0.807   0.807   0.804   0.814   0.814   0.794   0.795   0.801   0.808   0.810   0.801
   107.91    0.851   0.843   0.847   0.851   0.878   0.868   0.868   0.859   0.848   0.854   0.854   0.844   0.844   0.857   0.855   0.842   0.835   0.829   0.832   0.822   0.812   0.804   0.801   0.807   0.815   0.808   0.809   0.798   0.804   0.816   0.823   0.810   0.814
   103.85    0.833   0.827   0.837   0.847   0.857   0.872   0.873   0.853   0.853   0.845   0.846   0.844   0.840   0.855   0.843   0.835   0.832   0.828   0.822   0.805   0.807   0.790   0.808   0.813   0.817   0.808   0.808   0.814   0.811   0.817   0.823   0.817   0.811
    99.79    0.835   0.826   0.830   0.854   0.853   0.850   0.852   0.850   0.840   0.850   0.844   0.845   0.840   0.843   0.842   0.825   0.828   0.837   0.819   0.809   0.798   0.806   0.815   0.822   0.817   0.810   0.821   0.823   0.817   0.813   0.820   0.818   0.827
    95.73    0.831   0.832   0.848   0.851   0.857   0.856   0.854   0.850   0.846   0.839   0.853   0.838   0.845   0.838   0.838   0.842   0.840   0.824   0.827   0.827   0.811   0.803   0.810   0.825   0.817   0.817   0.822   0.822   0.828   0.835   0.824   0.824   0.815
    91.66    0.847   0.848   0.851   0.853   0.863   0.845   0.850   0.857   0.857   0.861   0.842   0.859   0.855   0.840   0.844   0.841   0.833   0.841   0.844   0.833   0.826   0.825   0.825   0.835   0.827   0.819   0.823   0.826   0.826   0.831   0.826   0.830   0.807
    87.60    0.851   0.844   0.856   0.857   0.862   0.851   0.845   0.860   0.857   0.852   0.855   0.862   0.856   0.857   0.845   0.847   0.847   0.849   0.843   0.837   0.839   0.834   0.830   0.833   0.834   0.829   0.831   0.841   0.832   0.830   0.821   0.816   0.815
    83.54    0.833   0.845   0.863   0.860   0.853   0.849   0.838   0.850   0.850   0.851   0.846   0.847   0.854   0.851   0.861   0.868   0.852   0.852   0.844   0.842   0.840   0.829   0.837   0.822   0.840   0.841   0.833   0.836   0.835   0.827   0.825   0.829   0.826
    79.48    0.831   0.840   0.851   0.854   0.854   0.864   0.857   0.844   0.837   0.852   0.846   0.837   0.847   0.843   0.858   0.854   0.848   0.846   0.851   0.843   0.839   0.833   0.817   0.824   0.837   0.831   0.834   0.833   0.829   0.836   0.840   0.840   0.817
    75.41    0.843   0.852   0.840   0.841   0.855   0.859   0.848   0.844   0.835   0.837   0.840   0.845   0.852   0.849   0.854   0.862   0.850   0.853   0.839   0.828   0.818   0.824   0.818   0.817   0.831   0.830   0.834   0.833   0.819   0.829   0.846   0.846   0.828
    71.35    0.847   0.846   0.835   0.849   0.847   0.846   0.836   0.833   0.826   0.842   0.865   0.850   0.848   0.857   0.855   0.854   0.841   0.845   0.822   0.814   0.816   0.813   0.807   0.820   0.831   0.834   0.834   0.824   0.829   0.831   0.828   0.834   0.835
    67.29    0.851   0.837   0.840   0.850   0.842   0.835   0.843   0.844   0.846   0.852   0.857   0.867   0.855   0.847   0.855   0.854   0.864   0.847   0.828   0.812   0.796   0.806   0.812   0.822   0.812   0.823   0.828   0.818   0.820   0.821   0.826   0.828   0.833
    63.23    0.846   0.835   0.838   0.833   0.836   0.850   0.843   0.858   0.865   0.853   0.855   0.860   0.855   0.858   0.856   0.854   0.862   0.852   0.844   0.827   0.815   0.823   0.831   0.832   0.831   0.832   0.817   0.817   0.820   0.826   0.824   0.829   0.833
    59.16    0.843   0.842   0.840   0.828   0.836   0.855   0.854   0.862   0.860   0.857   0.857   0.847   0.855   0.855   0.847   0.857   0.861   0.854   0.849   0.837   0.830   0.825   0.840   0.835   0.823   0.837   0.824   0.811   0.819   0.831   0.844   0.838   0.831
    55.10    0.848   0.848   0.839   0.846   0.848   0.857   0.859   0.852   0.849   0.837   0.839   0.848   0.856   0.857   0.855   0.854   0.843   0.855   0.851   0.846   0.840   0.844   0.844   0.844   0.836   0.832   0.829   0.829   0.809   0.831   0.832   0.831   0.830
    51.04    0.851   0.857   0.834   0.839   0.848   0.848   0.851   0.862   0.842   0.851   0.850   0.851   0.860   0.855   0.865   0.847   0.848   0.848   0.851   0.842   0.838   0.843   0.840   0.839   0.844   0.838   0.835   0.829   0.825   0.833   0.831   0.829   0.834
    46.98    0.849   0.849   0.829   0.828   0.829   0.829   0.841   0.844   0.846   0.845   0.851   0.845   0.852   0.850   0.852   0.846   0.855   0.850   0.844   0.854   0.852   0.851   0.843   0.838   0.843   0.849   0.843   0.833   0.824   0.818   0.834   0.820   0.826
    42.91    0.842   0.830   0.828   0.817   0.827   0.832   0.838   0.850   0.858   0.849   0.848   0.848   0.853   0.853   0.848   0.843   0.844   0.856   0.857   0.851   0.855   0.862   0.846   0.834   0.842   0.845   0.830   0.834   0.831   0.833   0.820   0.834   0.833
    38.85    0.835   0.827   0.816   0.821   0.826   0.837   0.846   0.840   0.857   0.854   0.851   0.841   0.856   0.848   0.850   0.852   0.851   0.849   0.851   0.841   0.849   0.861   0.852   0.838   0.839   0.832   0.831   0.831   0.837   0.831   0.839   0.845   0.835
    34.79    0.843   0.834   0.815   0.822   0.813   0.833   0.834   0.843   0.854   0.855   0.849   0.841   0.850   0.841   0.846   0.850   0.835   0.853   0.853   0.856   0.846   0.852   0.848   0.839   0.829   0.831   0.837   0.840   0.837   0.833   0.844   0.848   0.840
    30.73    0.836   0.830   0.826   0.814   0.828   0.827   0.841   0.841   0.848   0.852   0.852   0.846   0.842   0.838   0.831   0.843   0.842   0.836   0.843   0.862   0.863   0.869   0.843   0.846   0.845   0.841   0.830   0.842   0.837   0.837   0.831   0.837   0.839
    26.66    0.831   0.834   0.834   0.830   0.819   0.830   0.834   0.837   0.844   0.863   0.845   0.827   0.846   0.847   0.849   0.844   0.834   0.843   0.843   0.850   0.856   0.859   0.851   0.847   0.847   0.842   0.837   0.830   0.836   0.831   0.826   0.824   0.831
    22.60    0.840   0.838   0.840   0.837   0.822   0.828   0.832   0.837   0.836   0.839   0.836   0.839   0.838   0.846   0.843   0.842   0.840   0.851   0.849   0.855   0.848   0.850   0.836   0.834   0.839   0.846   0.849   0.835   0.837   0.836   0.823   0.819   0.814

   Height   Standard deviation at grid points for the w component:
   152.60    0.644   0.643   0.642   0.653   0.658   0.659   0.661   0.661   0.655   0.650   0.653   0.646   0.661   0.661   0.677   0.685   0.675   0.683   0.690   0.687   0.700   0.697   0.701   0.698   0.684   0.688   0.681   0.681   0.684   0.681   0.672   0.673   0.673
   148.54    0.638   0.638   0.653   0.661   0.656   0.664   0.668   0.661   0.652   0.647   0.653   0.648   0.660   0.665   0.675   0.677   0.679   0.677   0.684   0.680   0.692   0.695   0.696   0.685   0.683   0.680   0.670   0.679   0.685   0.681   0.674   0.675   0.672
   144.48    0.640   0.649   0.652   0.656   0.646   0.666   0.661   0.662   0.656   0.648   0.649   0.651   0.651   0.659   0.666   0.679   0.684   0.678   0.670   0.674   0.678   0.684   0.695   0.690   0.681   0.677   0.679   0.677   0.683   0.683   0.676   0.672   0.675
   140.41    0.646   0.642   0.646   0.649   0.652   0.668   0.666   0.670   0.658   0.653   0.646   0.655   0.645   0.661   0.672   0.677   0.679   0.670   0.663   0.675   0.684   0.685   0.689   0.687   0.688   0.685   0.677   0.669   0.669   0.667   0.665   0.674   0.664
   136.35    0.646   0.641   0.652   0.640   0.656   0.662   0.667   0.667   0.667   0.662   0.659   0.654   0.662   0.660   0.662   0.658   0.673   0.677   0.676   0.667   0.677   0.689   0.689   0.683   0.679   0.678   0.674   0.658   0.666   0.666   0.662   0.659   0.660
   132.29    0.639   0.648   0.653   0.649   0.655   0.655   0.651   0.659   0.664   0.665   0.669   0.660   0.658   0.650   0.657   0.664   0.664   0.677   0.670   0.671   0.667   0.684   0.681   0.678   0.677   0.674   0.667   0.661   0.669   0.667   0.654   0.655   0.661
   128.23    0.657   0.651   0.651   0.655   0.653   0.650   0.656   0.653   0.660   0.670   0.667   0.663   0.654   0.649   0.646   0.660   0.669   0.674   0.671   0.664   0.664   0.673   0.682   0.680   0.682   0.671   0.664   0.665   0.665   0.658   0.658   0.656   0.655
   124.16    0.662   0.654   0.655   0.647   0.643   0.647   0.645   0.651   0.662   0.668   0.668   0.659   0.653   0.653   0.657   0.662   0.664   0.667   0.666   0.662   0.674   0.676   0.678   0.674   0.667   0.670   0.670   0.663   0.663   0.667   0.664   0.660   0.658
   120.10    0.659   0.661   0.661   0.655   0.655   0.641   0.651   0.664   0.664   0.674   0.670   0.671   0.659   0.667   0.666   0.677   0.668   0.674   0.672   0.660   0.674   0.681   0.684   0.680   0.674   0.663   0.664   0.655   0.660   0.666   0.662   0.653   0.647
   116.04    0.669   0.657   0.664   0.657   0.648   0.647   0.664   0.668   0.670   0.674   0.669   0.670   0.672   0.670   0.665   0.666   0.673   0.672   0.674   0.674   0.682   0.682   0.675   0.678   0.673   0.664   0.659   0.658   0.666   0.658   0.657   0.656   0.659
   111.98    0.675   0.666   0.661   0.660   0.657   0.659   0.668   0.676   0.671   0.660   0.658   0.679   0.675   0.664   0.665   0.667   0.668   0.673   0.683   0.683   0.682   0.685   0.685   0.664   0.666   0.667   0.664   0.660   0.656   0.654   0.661   0.670   0.667
   107.91    0.671   0.672   0.668   0.663   0.657   0.666   0.668   0.674   0.670   0.659   0.658   0.674   0.680   0.671   0.664   0.666   0.668   0.673   0.680   0.680   0.678   0.687   0.694   0.684   0.673   0.679   0.669   0.657   0.657   0.655   0.654   0.664   0.670
   103.85    0.673   0.674   0.673   0.669   0.676   0.665   0.673   0.677   0.662   0.662   0.656   0.671   0.677   0.667   0.669   0.666   0.671   0.677   0.676   0.687   0.691   0.688   0.699   0.696   0.682   0.678   0.662   0.650   0.657   0.655   0.652   0.659   0.657
    99.79    0.672   0.673   0.669   0.665   0.671   0.670   0.680   0.675   0.664   0.667   0.667   0.666   0.670   0.673   0.669   0.675   0.675   0.676   0.677   0.688   0.681   0.695   0.703   0.697   0.689   0.679   0.666   0.653   0.657   0.657   0.653   0.661   0.650
    95.73    0.678   0.668   0.663   0.668   0.670   0.672   0.682   0.675   0.669   0.661   0.669   0.671   0.680   0.686   0.673   0.675   0.667   0.670   0.668   0.671   0.678   0.687   0.699   0.689   0.684   0.678   0.670   0.665   0.653   0.655   0.646   0.652   0.643
    91.66    0.672   0.662   0.667   0.672   0.673   0.673   0.676   0.671   0.669   0.666   0.665   0.669   0.682   0.696   0.682   0.673   0.676   0.666   0.673   0.689   0.686   0.685   0.685   0.681   0.674   0.674   0.670   0.657   0.649   0.641   0.645   0.639   0.655
    87.60    0.667   0.666   0.668   0.675   0.677   0.670   0.666   0.670   0.665   0.662   0.666   0.666   0.671   0.680   0.676   0.674   0.677   0.679   0.671   0.675   0.680   0.678   0.679   0.669   0.671   0.663   0.650   0.648   0.646   0.643   0.653   0.646   0.647
    83.54    0.669   0.674   0.671   0.678   0.686   0.675   0.663   0.668   0.656   0.667   0.664   0.656   0.666   0.675   0.670   0.672   0.688   0.686   0.677   0.672   0.681   0.679   0.683   0.677   0.665   0.653   0.654   0.646   0.645   0.650   0.644   0.632   0.651
    79.48    0.676   0.675   0.673   0.672   0.683   0.675   0.679   0.669   0.668   0.663   0.663   0.672   0.658   0.668   0.664   0.675   0.681   0.676   0.671   0.666   0.667   0.670   0.676   0.665   0.657   0.650   0.658   0.645   0.647   0.646   0.639   0.633   0.639
    75.41    0.678   0.667   0.671   0.672   0.683   0.678   0.685   0.675   0.675   0.666   0.661   0.669   0.663   0.658   0.664   0.672   0.671   0.667   0.669   0.664   0.661   0.658   0.661   0.657   0.655   0.644   0.646   0.647   0.653   0.648   0.639   0.640   0.641
    71.35    0.672   0.675   0.669   0.671   0.671   0.673   0.681   0.672   0.661   0.668   0.660   0.667   0.665   0.670   0.666   0.674   0.666   0.662   0.654   0.658   0.657   0.659   0.665   0.669   0.661   0.650   0.646   0.643   0.650   0.655   0.648   0.646   0.649
    67.29    0.667   0.661   0.661   0.667   0.671   0.682   0.665   0.664   0.661   0.666   0.659   0.654   0.663   0.664   0.668   0.669   0.662   0.658   0.648   0.657   0.662   0.662   0.659   0.656   0.663   0.656   0.654   0.646   0.648   0.651   0.649   0.641   0.640
    63.23    0.664   0.661   0.658   0.672   0.675   0.673   0.668   0.668   0.674   0.676   0.664   0.660   0.654   0.663   0.675   0.673   0.667   0.656   0.661   0.664   0.668   0.663   0.660   0.660   0.664   0.671   0.671   0.657   0.656   0.649   0.642   0.644   0.638
    59.16    0.664   0.669   0.666   0.678   0.666   0.668   0.665   0.666   0.670   0.672   0.672   0.671   0.667   0.662   0.671   0.671   0.665   0.666   0.658   0.664   0.663   0.658   0.662   0.649   0.662   0.674   0.671   0.673   0.673   0.661   0.657   0.646   0.641
    55.10    0.669   0.658   0.666   0.666   0.666   0.669   0.666   0.672   0.673   0.666   0.664   0.657   0.658   0.660   0.664   0.657   0.658   0.654   0.656   0.667   0.659   0.656   0.660   0.664   0.662   0.673   0.677   0.674   0.668   0.664   0.660   0.650   0.643
    51.04    0.669   0.655   0.665   0.679   0.676   0.677   0.671   0.671   0.662   0.670   0.660   0.651   0.652   0.650   0.661   0.649   0.655   0.655   0.652   0.660   0.663   0.661   0.665   0.671   0.670   0.673   0.675   0.673   0.666   0.662   0.662   0.659   0.652
    46.98    0.670   0.665   0.665   0.677   0.665   0.667   0.663   0.671   0.673   0.671   0.666   0.663   0.652   0.651   0.647   0.652   0.655   0.662   0.664   0.655   0.651   0.650   0.663   0.672   0.665   0.676   0.678   0.669   0.662   0.664   0.669   0.660   0.662
    42.91    0.658   0.652   0.668   0.672   0.667   0.660   0.659   0.662   0.664   0.671   0.663   0.663   0.666   0.657   0.651   0.653   0.659   0.658   0.661   0.653   0.642   0.652   0.653   0.662   0.672   0.669   0.671   0.668   0.661   0.663   0.667   0.669   0.659
    38.85    0.653   0.662   0.669   0.666   0.667   0.660   0.658   0.659   0.661   0.671   0.664   0.661   0.659   0.658   0.656   0.654   0.651   0.651   0.660   0.653   0.655   0.661   0.666   0.669   0.664   0.665   0.676   0.672   0.668   0.670   0.679   0.659   0.657
    34.79    0.665   0.664   0.672   0.674   0.666   0.668   0.658   0.663   0.670   0.662   0.657   0.662   0.656   0.655   0.652   0.648   0.657   0.649   0.654   0.647   0.649   0.653   0.659   0.668   0.667   0.662   0.668   0.669   0.670   0.677   0.675   0.669   0.666
    30.73    0.657   0.665   0.668   0.664   0.657   0.660   0.660   0.658   0.655   0.652   0.667   0.659   0.649   0.652   0.653   0.646   0.642   0.656   0.653   0.652   0.652   0.653   0.655   0.658   0.669   0.661   0.662   0.658   0.668   0.668   0.669   0.664   0.663
    26.66    0.659   0.657   0.659   0.667   0.670   0.662   0.658   0.652   0.649   0.657   0.661   0.651   0.648   0.652   0.657   0.647   0.650   0.656   0.656   0.658   0.662   0.652   0.644   0.659   0.661   0.666   0.665   0.649   0.660   0.660   0.656   0.660   0.656
    22.60    0.657   0.651   0.661   0.665   0.667   0.665   0.662   0.653   0.649   0.653   0.655   0.650   0.649   0.649   0.653   0.650   0.648   0.653   0.647   0.656   0.654   0.647   0.648   0.653   0.662   0.661   0.654   0.648   0.658   0.655   0.651   0.657   0.653

   Mean standard deviation across all grid points:
      u component:    1.122 m/s
      v component:    0.835 m/s
      w component:    0.665 m/s


U-component (X) statistics from the hub grid point:

   Mean =  10.0000 m/s
   TI   =  11.0657 %

Nyquist frequency of turbulent wind field =        10.000 Hz


Processing complete.  2825.8 CPU seconds used.
