
This summary file was generated by TurbSim (v1.06.00, 21-Sep-2012) on 15-Sep-2020 at 15:13:33.


Runtime Options:

  65432154  Random seed #1
    RANLUX  Type of random number generator
         F  Output binary HH turbulence parameters?
         F  Output formatted turbulence parameters?
         F  Output AeroDyn HH files?
         T  Output AeroDyn FF files?
         F  Output BLADED FF files?
         T  Output tower data?
         F  Output formatted FF files?
         F  Output coherent turbulence time step file?
         T  Clockwise rotation when looking downwind?
 0 -  NONE  IEC turbulence models scaled to exact specified standard deviation


Turbine/Model Specifications:

        33  Vertical grid-point matrix dimension
        33  Horizontal grid-point matrix dimension
     0.050  Time step [seconds]
   370.000  Analysis time [seconds]
   370.000  Usable output time [seconds]
    87.600  Hub height [m]
   130.000  Grid height [m]
   130.000  Grid width [m]
     0.000  Vertical flow angle [degrees]
     0.000  Horizontal flow angle [degrees]


Meteorological Boundary Conditions:

    SMOOTH  RISO Smooth Terrain spectral model
       N/A  IEC standard
       N/A  IEC turbulence characteristic
       N/A  IEC turbulence type
       N/A  IEC Extreme Turbulence Model (ETM) "c" parameter [m/s]
       IEC  Wind profile type
    87.600  Reference height [m]
    22.000  Reference wind speed [m/s]
       N/A  Jet height [m]
     0.143  Power law exponent
     0.010  Surface roughness length [m]


Non-IEC Meteorological Boundary Conditions:

    45.000  Site latitude [degrees]
     0.050  Gradient Richardson number
     0.935  Friction or shear velocity [m/s]
       N/A  Mixing layer depth [m]
    -0.874  Mean hub u'w' Reynolds stress
       N/A  Mean hub u'v' Reynolds stress
       N/A  Mean hub v'w' Reynolds stress
(   22.000,  0.00    )  u-component coherence parameters
(   16.500,  0.00    )  v-component coherence parameters
(   16.500,  0.00    )  w-component coherence parameters
     0.000  Coherence exponent


You have requested that the following file(s) be generated:

   unsteady_tmp_22.bts (AeroDyn/TurbSim full-field wind file)


Turbulence Simulation Scaling Parameter Summary:

   Turbulence model used                            =  RISO Smooth Terrain
   Gradient Richardson number                       =    0.050
   Monin-Obukhov (M-O) z/L parameter                =    0.067
   Monin-Obukhov (M-O) length scale                 = 1314.000 m
   Mean wind speed at hub height                    =   22.000 m/s

   Wind profile type                                =  Power law on rotor disk, logarithmic elsewhere
   Power law exponent                               =    0.143
   Mean shear across rotor disk                     =    0.040 (m/s)/m
   Assumed rotor diameter                           =  130.000 m
   Surface roughness length                         =    0.010 m

   Number of time steps in the FFT                  =     7524
   Number of time steps output                      =     7519


Mean Flow Angles:

   Vertical   =   0.0 degrees
   Horizontal =   0.0 degrees

Mean Wind Speed Profile:

   Height    Wind Speed   Horizontal Angle  U-comp (X)   V-comp (Y)   W-comp (Z)
     (m)        (m/s)         (degrees)       (m/s)        (m/s)        (m/s)   
   ------    ----------   ----------------  ----------   ----------   ----------
    152.6       23.35            0.00         23.35         0.00         0.00
    148.5       23.73            0.00         23.73         0.00         0.00
    144.5       23.63            0.00         23.63         0.00         0.00
    140.4       23.54            0.00         23.54         0.00         0.00
    136.4       23.44            0.00         23.44         0.00         0.00
    132.3       23.34            0.00         23.34         0.00         0.00
    128.2       23.23            0.00         23.23         0.00         0.00
    124.2       23.13            0.00         23.13         0.00         0.00
    120.1       23.02            0.00         23.02         0.00         0.00
    116.0       22.90            0.00         22.90         0.00         0.00
    112.0       22.79            0.00         22.79         0.00         0.00
    107.9       22.67            0.00         22.67         0.00         0.00
    103.9       22.54            0.00         22.54         0.00         0.00
     99.8       22.41            0.00         22.41         0.00         0.00
     95.7       22.28            0.00         22.28         0.00         0.00
     91.7       22.14            0.00         22.14         0.00         0.00
     87.6       22.00            0.00         22.00         0.00         0.00
     83.5       21.85            0.00         21.85         0.00         0.00
     79.5       21.70            0.00         21.70         0.00         0.00
     75.4       21.53            0.00         21.53         0.00         0.00
     71.4       21.36            0.00         21.36         0.00         0.00
     67.3       21.19            0.00         21.19         0.00         0.00
     63.2       21.00            0.00         21.00         0.00         0.00
     59.2       20.80            0.00         20.80         0.00         0.00
     55.1       20.59            0.00         20.59         0.00         0.00
     51.0       20.36            0.00         20.36         0.00         0.00
     47.0       20.12            0.00         20.12         0.00         0.00
     42.9       19.87            0.00         19.87         0.00         0.00
     38.9       19.59            0.00         19.59         0.00         0.00
     34.8       19.28            0.00         19.28         0.00         0.00
     30.7       18.94            0.00         18.94         0.00         0.00
     26.7       18.56            0.00         18.56         0.00         0.00
     22.6       18.13            0.00         18.13         0.00         0.00
     18.5       18.24            0.00         18.24         0.00         0.00
     14.5       17.64            0.00         17.64         0.00         0.00
     10.4       16.84            0.00         16.84         0.00         0.00
      6.4       15.64            0.00         15.64         0.00         0.00
      2.3       13.17            0.00         13.17         0.00         0.00


Harvested Random Seeds after Generation of the Random Numbers:

    114723031 K1
            0 K2


Scaling statistics from the hub grid point:

   Cross-Component  Scaling Factor
   ---------------  --------------
   u'w'               -0.27816E+00
   u'v'                0.00000E+00
   v'w'                0.00000E+00


Hub-Height Simulated Turbulence Statistical Summary:

   Type of Wind        Min (m/s)   Mean (m/s)    Max (m/s)  Sigma (m/s)       TI (%)
   ----------------    ---------   ----------    ---------  -----------       ------
   Longitudinal (u)        13.41        22.00        29.06        2.097        9.532
   Lateral (v)             -6.67         0.00         5.82        1.709        7.768
   Vertical (w)            -5.97         0.00         4.74        1.429        6.495
   U component             13.41        22.00        29.06        2.097        9.532
   V component             -6.67         0.00         5.82        1.709        7.768
   W component             -5.97         0.00         4.74        1.429        6.495
   Horizontal (U&V)        13.41        22.07        29.12        2.094        9.490
   Total                   13.82        22.11        29.23        2.092        9.459

                       Min Reynolds     Mean Reynolds    Max Reynolds    Correlation
   Product             Stress (m/s)^2   Stress (m/s)^2   Stress (m/s)^2  Coefficient
   ----------------    --------------   --------------   --------------  -----------
   u'w'                    -28.975            -0.874            11.456        -0.292
   u'v'                    -22.007             0.356            23.450         0.099
   v'w'                    -16.561             0.129            27.766         0.053


   Friction Velocity (Ustar)  =      0.935 m/s
   Maximum Instantaneous TKE  =     42.626 (m/s)^2
   Maximum Instantaneous CTKE =     14.847 (m/s)^2


Grid Point Variance Summary:

   Y-coord  -65.00  -60.94  -56.88  -52.81  -48.75  -44.69  -40.62  -36.56  -32.50  -28.44  -24.38  -20.31  -16.25  -12.19   -8.12   -4.06    0.00    4.06    8.12   12.19   16.25   20.31   24.38   28.44   32.50   36.56   40.62   44.69   48.75   52.81   56.88   60.94   65.00

   Height   Standard deviation at grid points for the u component:
   152.60    2.859   2.872   2.619   2.571   2.654   2.761   2.713   2.692   2.634   2.537   2.442   2.465   2.367   2.282   2.073   2.152   1.953   2.002   1.995   2.142   2.138   2.137   2.146   2.215   2.351   2.330   2.412   2.286   2.239   2.328   2.191   2.140   2.121
   148.54    2.864   2.754   2.580   2.618   2.656   2.524   2.703   2.626   2.659   2.612   2.423   2.389   2.374   2.190   2.172   2.127   2.032   1.945   1.978   2.017   2.085   2.196   2.112   2.070   2.186   2.079   2.141   2.269   2.254   2.192   2.126   2.099   2.181
   144.48    2.755   2.656   2.535   2.524   2.641   2.566   2.534   2.583   2.617   2.630   2.413   2.247   2.276   2.230   2.187   2.131   2.065   2.106   2.009   1.976   1.922   1.996   1.973   1.974   2.079   1.962   2.031   2.209   2.088   2.128   2.170   2.079   2.119
   140.41    2.754   2.668   2.578   2.538   2.530   2.484   2.590   2.529   2.541   2.472   2.451   2.280   2.293   2.330   2.170   2.042   2.075   2.101   2.005   1.931   1.853   1.843   1.762   1.840   1.821   1.927   2.063   2.016   2.088   2.062   1.978   2.010   2.063
   136.35    2.722   2.695   2.709   2.652   2.629   2.782   2.665   2.508   2.490   2.426   2.378   2.336   2.306   2.123   2.157   2.047   2.110   2.099   1.964   1.843   1.765   1.812   1.761   1.813   1.789   1.811   1.975   1.926   1.983   2.082   2.125   1.986   1.958
   132.29    2.510   2.640   2.604   2.551   2.635   2.664   2.646   2.623   2.463   2.379   2.397   2.259   2.125   2.132   2.137   2.084   2.068   2.062   1.906   1.798   1.901   1.827   1.883   1.899   1.861   1.806   1.941   2.035   2.043   2.121   2.073   2.118   1.993
   128.23    2.569   2.589   2.572   2.663   2.586   2.489   2.593   2.453   2.342   2.245   2.217   2.148   2.097   2.106   2.142   2.158   2.070   1.995   1.938   1.829   1.862   1.862   1.886   1.818   1.811   1.856   1.779   1.866   2.028   2.149   1.974   2.009   1.993
   124.16    2.560   2.490   2.573   2.529   2.660   2.533   2.434   2.320   2.284   2.316   2.269   2.192   2.039   2.132   2.184   2.145   2.130   2.015   1.884   1.884   1.819   1.844   1.909   1.884   1.859   1.808   1.809   1.831   2.018   2.109   2.037   1.873   1.975
   120.10    2.585   2.558   2.599   2.538   2.480   2.487   2.369   2.249   2.324   2.285   2.252   2.100   2.042   2.133   2.208   2.122   2.261   2.176   1.887   1.922   1.913   1.950   1.980   1.920   1.934   1.935   2.008   1.959   2.129   2.208   2.105   2.207   2.140
   116.04    2.484   2.666   2.447   2.469   2.477   2.397   2.459   2.386   2.300   2.347   2.321   2.256   2.158   2.179   2.133   2.110   2.260   2.185   1.995   1.975   1.912   1.918   1.925   1.912   1.954   2.067   2.186   2.073   2.244   2.322   2.447   2.302   2.184
   111.98    2.637   2.724   2.854   2.598   2.435   2.467   2.439   2.460   2.335   2.335   2.274   2.170   2.207   2.275   2.170   2.147   2.079   2.182   2.028   2.046   2.074   1.924   1.857   1.887   1.919   2.072   2.277   2.164   2.088   2.170   2.337   2.348   2.331
   107.91    2.595   2.745   2.727   2.655   2.469   2.414   2.330   2.349   2.415   2.394   2.232   2.217   2.200   2.139   2.048   1.979   2.032   2.093   2.054   2.133   2.212   2.146   2.063   1.933   1.943   2.129   2.144   2.073   2.104   2.296   2.292   2.393   2.355
   103.85    2.702   2.644   2.738   2.709   2.351   2.338   2.212   2.234   2.283   2.223   2.332   2.242   2.152   1.960   1.939   1.939   1.968   1.932   2.081   2.305   2.329   2.391   2.324   2.129   2.141   2.132   2.164   2.282   2.296   2.346   2.354   2.408   2.250
    99.79    2.620   2.739   2.590   2.524   2.349   2.313   2.019   2.195   2.158   2.150   2.142   2.170   2.022   1.946   1.968   1.991   1.993   1.833   2.121   2.291   2.289   2.387   2.482   2.227   2.222   2.364   2.289   2.334   2.369   2.348   2.236   2.395   2.255
    95.73    2.654   2.510   2.355   2.382   2.397   2.350   2.119   2.219   2.140   2.039   1.982   2.106   2.072   2.047   2.039   2.050   2.038   1.948   2.089   2.257   2.236   2.410   2.542   2.308   2.380   2.408   2.197   2.376   2.360   2.446   2.373   2.370   2.311
    91.66    2.548   2.472   2.476   2.572   2.371   2.263   2.180   2.149   2.166   2.106   2.086   2.064   2.026   2.074   2.048   1.932   2.046   2.046   2.099   2.355   2.268   2.539   2.498   2.357   2.458   2.361   2.260   2.361   2.449   2.421   2.356   2.340   2.408
    87.60    2.413   2.423   2.493   2.501   2.425   2.273   2.220   2.133   2.090   2.027   2.083   2.073   2.010   2.135   1.945   1.924   2.097   2.155   2.097   2.131   2.249   2.326   2.363   2.610   2.517   2.503   2.379   2.373   2.475   2.413   2.302   2.420   2.282
    83.54    2.341   2.262   2.381   2.426   2.352   2.226   2.168   1.996   2.032   2.149   2.141   1.990   1.948   1.950   1.972   2.010   2.000   2.077   1.962   2.045   2.225   2.285   2.379   2.414   2.487   2.458   2.415   2.316   2.359   2.412   2.426   2.490   2.367
    79.48    2.141   2.290   2.333   2.272   2.275   2.309   2.148   2.017   2.025   2.007   2.036   2.069   1.928   1.956   2.022   2.044   2.025   2.138   2.025   2.065   2.065   2.257   2.353   2.375   2.341   2.444   2.603   2.326   2.351   2.329   2.404   2.239   2.419
    75.41    2.177   2.305   2.382   2.315   2.268   2.292   2.322   2.036   1.877   1.823   2.046   2.177   2.118   2.049   2.071   2.000   2.079   2.081   2.016   2.006   2.087   2.159   2.287   2.207   2.308   2.361   2.462   2.373   2.134   2.383   2.439   2.356   2.294
    71.35    2.259   2.432   2.365   2.329   2.348   2.291   2.203   2.141   2.041   1.999   1.984   1.922   2.029   2.133   2.027   1.906   2.031   2.227   2.226   2.131   2.037   2.183   2.240   2.221   2.179   2.372   2.361   2.092   2.236   2.272   2.248   2.303   2.134
    67.29    2.255   2.340   2.361   2.400   2.424   2.363   2.135   2.030   2.072   1.962   1.919   1.737   1.868   1.885   1.913   2.010   2.076   2.196   2.119   2.128   2.144   2.243   2.220   2.244   2.202   2.157   2.194   2.111   2.194   2.187   2.208   2.166   2.138
    63.23    2.345   2.330   2.219   2.310   2.289   2.192   2.204   2.044   2.072   1.955   1.866   1.956   2.049   2.048   2.077   2.108   2.239   2.245   2.177   2.134   2.180   2.294   2.291   2.172   2.287   2.178   2.176   2.266   2.298   2.246   2.098   2.172   2.182
    59.16    2.250   2.219   2.269   2.298   2.348   2.205   2.066   2.052   2.094   1.997   1.889   1.974   2.062   2.109   2.108   2.183   2.293   2.259   2.252   2.199   2.296   2.340   2.338   2.280   2.163   2.256   2.189   2.306   2.356   2.314   2.085   2.125   2.243
    55.10    2.361   2.212   2.280   2.323   2.365   2.262   2.062   2.183   2.146   2.049   1.944   1.854   1.895   2.006   2.096   2.144   2.332   2.320   2.331   2.229   2.390   2.393   2.368   2.339   2.189   2.300   2.239   2.250   2.369   2.251   2.160   2.192   2.134
    51.04    2.317   2.226   2.354   2.341   2.197   2.254   2.222   2.055   2.127   2.090   2.067   1.875   1.937   2.027   2.125   2.118   2.251   2.143   2.246   2.219   2.326   2.428   2.507   2.449   2.392   2.331   2.395   2.256   2.235   2.237   2.263   2.131   2.121
    46.98    2.375   2.174   2.230   2.298   2.161   2.233   2.043   2.103   2.203   2.130   2.197   2.040   2.016   2.036   2.140   2.097   2.189   2.119   2.111   2.169   2.405   2.413   2.560   2.483   2.335   2.309   2.397   2.359   2.216   2.180   2.224   2.173   2.258
    42.91    2.247   2.219   2.195   2.209   2.179   2.272   2.147   2.215   2.297   2.355   2.259   2.219   2.157   2.195   2.199   2.232   2.273   2.203   2.273   2.482   2.485   2.652   2.446   2.561   2.463   2.315   2.330   2.188   2.188   2.297   2.234   2.161   2.287
    38.85    2.266   2.272   2.240   2.226   2.231   2.249   2.212   2.213   2.378   2.321   2.236   2.085   2.210   2.212   2.223   2.194   2.198   2.120   2.319   2.513   2.447   2.661   2.480   2.367   2.451   2.264   2.232   2.229   2.244   2.181   2.166   2.243   2.265
    34.79    2.271   2.216   2.197   2.177   2.162   2.194   2.153   2.268   2.337   2.307   2.233   2.327   2.247   2.228   2.168   2.245   2.352   2.231   2.182   2.404   2.419   2.693   2.629   2.350   2.290   2.353   2.211   2.245   2.182   2.179   2.236   2.276   2.387
    30.73    2.217   2.235   2.251   2.181   2.185   2.270   2.169   2.190   2.312   2.291   2.330   2.344   2.271   2.209   2.172   2.382   2.439   2.489   2.398   2.299   2.289   2.482   2.524   2.445   2.395   2.345   2.309   2.269   2.266   2.243   2.134   2.296   2.401
    26.66    2.325   2.211   2.126   2.219   2.289   2.239   2.150   2.287   2.208   2.280   2.319   2.312   2.353   2.292   2.439   2.457   2.507   2.461   2.539   2.341   2.212   2.287   2.452   2.386   2.331   2.506   2.449   2.372   2.356   2.183   2.295   2.287   2.314
    22.60    2.408   2.213   2.315   2.254   2.314   2.310   2.308   2.322   2.438   2.316   2.337   2.384   2.352   2.411   2.422   2.384   2.357   2.397   2.385   2.406   2.289   2.229   2.265   2.415   2.496   2.483   2.476   2.402   2.392   2.344   2.372   2.367   2.416

   Height   Standard deviation at grid points for the v component:
   152.60    1.796   1.849   1.919   1.909   1.831   1.890   1.862   1.981   1.952   1.995   2.030   1.969   1.849   1.867   1.815   1.845   1.864   1.900   1.858   1.808   1.877   1.738   1.721   1.586   1.529   1.577   1.589   1.666   1.760   1.875   1.779   1.694   1.740
   148.54    1.859   1.877   1.867   1.923   1.874   1.846   1.929   1.946   2.012   2.038   2.089   1.965   1.859   1.858   1.876   1.967   1.837   1.870   1.841   1.819   1.878   1.822   1.740   1.659   1.604   1.593   1.564   1.672   1.811   1.824   1.743   1.701   1.745
   144.48    1.858   1.832   1.860   1.904   1.833   1.893   1.967   1.922   1.974   2.021   1.970   1.899   1.848   1.927   1.905   1.962   1.905   1.895   1.796   1.800   1.808   1.847   1.785   1.667   1.619   1.665   1.650   1.695   1.786   1.752   1.742   1.732   1.725
   140.41    1.893   1.925   1.903   1.879   1.946   1.957   1.954   1.920   1.908   2.001   1.975   2.011   1.959   1.981   1.937   1.973   1.856   1.872   1.810   1.876   1.812   1.846   1.794   1.712   1.683   1.707   1.770   1.681   1.716   1.770   1.638   1.598   1.694
   136.35    2.035   2.024   1.937   1.866   1.900   1.978   2.003   1.922   1.920   1.879   1.971   2.055   1.999   1.925   1.796   1.832   1.822   1.879   1.864   1.850   1.861   1.856   1.784   1.855   1.829   1.812   1.791   1.727   1.746   1.700   1.674   1.697   1.790
   132.29    2.010   1.938   1.969   1.916   1.861   1.869   1.958   1.958   1.939   1.869   1.985   2.045   2.006   1.926   1.847   1.899   1.972   1.924   1.863   1.863   1.901   1.817   1.717   1.772   1.771   1.794   1.779   1.695   1.727   1.680   1.595   1.673   1.644
   128.23    2.000   1.939   1.973   1.909   1.847   1.921   1.987   2.030   1.958   1.965   1.977   1.970   2.006   1.964   1.949   1.970   1.996   1.908   1.827   1.936   1.855   1.758   1.811   1.738   1.765   1.712   1.697   1.585   1.638   1.614   1.671   1.681   1.619
   124.16    1.943   1.865   1.857   1.782   1.779   1.803   1.887   1.894   1.898   1.935   1.955   1.960   1.950   2.028   1.994   2.003   2.008   1.895   1.956   1.870   1.790   1.783   1.820   1.713   1.707   1.741   1.719   1.619   1.644   1.616   1.588   1.600   1.627
   120.10    1.969   1.871   1.817   1.889   1.834   1.824   1.905   1.852   1.837   1.960   1.996   1.957   2.000   2.034   1.982   2.050   1.934   1.864   1.837   1.810   1.835   1.811   1.767   1.655   1.671   1.681   1.696   1.729   1.657   1.674   1.605   1.582   1.563
   116.04    1.913   1.825   1.885   1.878   1.883   1.883   1.886   1.864   1.902   1.981   1.965   1.953   1.942   2.024   1.922   1.970   1.919   1.870   1.792   1.747   1.739   1.768   1.713   1.675   1.682   1.662   1.693   1.724   1.616   1.677   1.657   1.661   1.732
   111.98    1.846   1.922   1.875   1.869   1.905   1.954   1.910   1.942   1.989   1.925   1.973   1.980   1.957   1.979   1.943   1.852   1.818   1.801   1.862   1.790   1.840   1.814   1.789   1.693   1.736   1.670   1.729   1.691   1.663   1.667   1.664   1.764   1.778
   107.91    1.882   1.834   1.870   1.966   1.880   1.912   1.940   1.973   1.964   1.958   1.931   1.972   1.998   1.940   1.874   1.822   1.769   1.822   1.771   1.792   1.875   1.827   1.767   1.756   1.679   1.598   1.539   1.623   1.730   1.677   1.673   1.796   1.754
   103.85    1.817   1.832   1.914   1.880   1.790   1.904   1.965   1.884   1.937   1.898   1.918   1.906   1.897   1.871   1.848   1.831   1.801   1.890   1.807   1.767   1.691   1.765   1.729   1.713   1.683   1.659   1.653   1.667   1.735   1.652   1.666   1.759   1.771
    99.79    1.872   1.845   1.887   1.870   1.905   1.959   1.910   1.911   1.936   1.835   1.957   1.831   1.923   1.974   1.886   1.784   1.793   1.813   1.847   1.749   1.710   1.729   1.700   1.667   1.673   1.726   1.745   1.750   1.697   1.682   1.738   1.711   1.706
    95.73    1.837   1.892   2.017   1.943   2.010   1.992   1.981   1.982   1.945   1.913   1.870   1.869   1.899   1.835   1.911   1.832   1.803   1.782   1.713   1.703   1.621   1.680   1.717   1.665   1.721   1.742   1.815   1.847   1.713   1.735   1.683   1.647   1.645
    91.66    1.927   1.903   1.935   1.982   1.979   1.919   1.936   1.919   1.896   1.878   1.883   1.926   1.918   1.864   1.824   1.831   1.795   1.737   1.710   1.703   1.670   1.663   1.682   1.695   1.779   1.820   1.816   1.873   1.750   1.734   1.704   1.611   1.577
    87.60    1.883   1.872   1.903   1.990   1.915   1.917   1.931   1.921   1.840   1.915   1.916   2.000   2.035   1.852   1.762   1.731   1.709   1.705   1.662   1.741   1.674   1.611   1.721   1.754   1.694   1.747   1.771   1.762   1.753   1.677   1.695   1.695   1.591
    83.54    1.814   1.767   1.848   1.929   1.861   1.862   1.881   1.938   1.854   1.872   1.987   1.962   1.946   1.867   1.809   1.720   1.700   1.613   1.660   1.742   1.684   1.704   1.665   1.797   1.783   1.841   1.830   1.856   1.851   1.732   1.727   1.797   1.607
    79.48    1.795   1.812   1.803   1.836   1.882   1.846   1.952   1.959   1.919   1.835   1.864   1.934   1.897   1.857   1.751   1.723   1.639   1.696   1.732   1.720   1.811   1.782   1.831   1.829   1.774   1.827   1.850   1.798   1.799   1.733   1.751   1.719   1.674
    75.41    1.781   1.721   1.805   1.872   1.947   1.929   1.990   2.053   1.982   1.908   1.847   1.910   1.877   1.860   1.864   1.690   1.535   1.633   1.716   1.777   1.778   1.716   1.813   1.820   1.853   1.827   1.842   1.849   1.713   1.735   1.757   1.738   1.673
    71.35    1.788   1.867   1.832   1.909   1.890   1.929   1.971   2.041   2.029   1.900   1.905   1.886   1.889   1.848   1.837   1.752   1.641   1.669   1.721   1.775   1.760   1.813   1.848   1.835   1.862   1.885   1.828   1.762   1.711   1.767   1.765   1.775   1.660
    67.29    1.816   1.829   1.842   1.834   1.841   1.873   1.860   1.904   1.858   1.824   1.973   1.881   1.842   1.855   1.789   1.732   1.757   1.683   1.730   1.730   1.781   1.792   1.718   1.803   1.841   1.832   1.875   1.860   1.816   1.698   1.773   1.771   1.643
    63.23    1.833   1.915   1.835   1.842   1.859   1.907   1.856   1.767   1.754   1.834   1.872   1.844   1.871   1.825   1.789   1.695   1.748   1.689   1.714   1.686   1.743   1.759   1.680   1.787   1.780   1.762   1.731   1.793   1.746   1.746   1.764   1.775   1.665
    59.16    1.889   1.872   1.842   1.796   1.873   1.939   1.890   1.769   1.775   1.833   1.822   1.853   1.809   1.762   1.751   1.734   1.684   1.749   1.743   1.745   1.748   1.772   1.762   1.708   1.727   1.782   1.718   1.744   1.638   1.684   1.728   1.751   1.761
    55.10    1.864   1.928   1.864   1.852   1.940   1.869   1.866   1.784   1.801   1.871   1.847   1.860   1.842   1.791   1.790   1.836   1.793   1.856   1.812   1.806   1.745   1.779   1.727   1.685   1.676   1.736   1.728   1.725   1.708   1.762   1.811   1.774   1.754
    51.04    1.866   1.897   1.993   1.935   1.958   1.907   1.874   1.831   1.853   1.845   1.884   1.861   1.804   1.818   1.799   1.844   1.873   1.882   1.808   1.762   1.778   1.758   1.715   1.714   1.724   1.742   1.713   1.808   1.786   1.807   1.802   1.755   1.785
    46.98    1.880   1.909   1.947   1.901   1.908   1.936   1.850   1.757   1.793   1.833   1.795   1.833   1.870   1.849   1.818   1.784   1.858   1.908   1.857   1.756   1.814   1.782   1.779   1.723   1.730   1.792   1.801   1.853   1.884   1.837   1.769   1.742   1.744
    42.91    1.888   1.866   1.876   1.919   1.939   1.986   1.900   1.919   1.843   1.858   1.835   1.875   1.919   1.930   1.870   1.902   1.853   1.822   1.774   1.792   1.768   1.832   1.798   1.766   1.700   1.758   1.826   1.779   1.805   1.821   1.758   1.742   1.695
    38.85    1.834   1.874   1.853   1.843   1.881   1.969   1.931   1.920   1.847   1.804   1.786   1.776   1.844   1.900   1.875   1.857   1.878   1.804   1.765   1.792   1.835   1.824   1.800   1.758   1.698   1.729   1.746   1.805   1.791   1.740   1.729   1.753   1.716
    34.79    1.813   1.863   1.817   1.894   1.907   1.922   1.883   1.922   1.869   1.844   1.775   1.764   1.774   1.868   1.889   1.885   1.871   1.847   1.817   1.823   1.782   1.737   1.775   1.824   1.755   1.738   1.759   1.783   1.771   1.766   1.777   1.786   1.747
    30.73    1.808   1.844   1.908   1.915   1.846   1.878   1.865   1.911   1.866   1.841   1.763   1.775   1.804   1.860   1.869   1.889   1.831   1.815   1.807   1.811   1.773   1.758   1.798   1.809   1.772   1.824   1.841   1.815   1.832   1.689   1.753   1.679   1.766
    26.66    1.849   1.874   1.883   1.899   1.830   1.840   1.850   1.813   1.832   1.739   1.792   1.792   1.761   1.855   1.775   1.772   1.719   1.813   1.755   1.748   1.853   1.833   1.826   1.836   1.836   1.857   1.794   1.827   1.803   1.744   1.745   1.774   1.760
    22.60    1.827   1.825   1.866   1.883   1.784   1.778   1.825   1.840   1.878   1.803   1.747   1.778   1.776   1.782   1.768   1.787   1.758   1.784   1.852   1.831   1.807   1.780   1.769   1.815   1.781   1.799   1.768   1.845   1.831   1.734   1.764   1.777   1.875

   Height   Standard deviation at grid points for the w component:
   152.60    1.484   1.522   1.556   1.529   1.464   1.555   1.578   1.569   1.582   1.473   1.390   1.409   1.340   1.377   1.429   1.406   1.346   1.402   1.512   1.506   1.489   1.387   1.432   1.450   1.455   1.433   1.439   1.527   1.523   1.547   1.557   1.509   1.529
   148.54    1.461   1.547   1.530   1.512   1.538   1.527   1.509   1.517   1.519   1.482   1.366   1.348   1.387   1.396   1.407   1.455   1.425   1.432   1.486   1.503   1.499   1.461   1.435   1.414   1.468   1.432   1.417   1.534   1.530   1.555   1.505   1.496   1.467
   144.48    1.447   1.443   1.454   1.521   1.567   1.540   1.533   1.504   1.489   1.475   1.395   1.331   1.380   1.380   1.399   1.468   1.434   1.459   1.508   1.489   1.424   1.431   1.390   1.430   1.460   1.488   1.457   1.471   1.521   1.467   1.510   1.486   1.463
   140.41    1.418   1.470   1.498   1.504   1.585   1.555   1.583   1.495   1.452   1.428   1.399   1.416   1.453   1.427   1.423   1.387   1.453   1.529   1.528   1.557   1.445   1.349   1.396   1.455   1.500   1.473   1.485   1.509   1.542   1.508   1.429   1.421   1.521
   136.35    1.388   1.482   1.479   1.513   1.582   1.601   1.582   1.543   1.461   1.431   1.419   1.449   1.476   1.463   1.439   1.431   1.496   1.517   1.516   1.507   1.490   1.452   1.415   1.442   1.453   1.432   1.443   1.517   1.569   1.479   1.473   1.500   1.487
   132.29    1.412   1.458   1.465   1.524   1.568   1.623   1.560   1.586   1.479   1.421   1.448   1.413   1.466   1.390   1.440   1.480   1.520   1.485   1.490   1.468   1.472   1.425   1.455   1.475   1.424   1.390   1.442   1.562   1.504   1.510   1.447   1.495   1.486
   128.23    1.416   1.391   1.429   1.509   1.478   1.535   1.577   1.545   1.478   1.436   1.403   1.461   1.465   1.464   1.485   1.446   1.421   1.434   1.436   1.462   1.450   1.482   1.485   1.438   1.415   1.404   1.434   1.492   1.523   1.475   1.448   1.472   1.503
   124.16    1.444   1.371   1.471   1.524   1.556   1.517   1.511   1.476   1.450   1.440   1.493   1.517   1.548   1.493   1.467   1.439   1.445   1.451   1.423   1.452   1.455   1.411   1.459   1.422   1.450   1.412   1.438   1.472   1.505   1.489   1.504   1.561   1.516
   120.10    1.423   1.393   1.488   1.569   1.559   1.476   1.486   1.475   1.493   1.460   1.478   1.470   1.451   1.471   1.434   1.391   1.443   1.415   1.357   1.396   1.457   1.492   1.442   1.433   1.473   1.465   1.458   1.477   1.480   1.485   1.494   1.563   1.532
   116.04    1.464   1.406   1.426   1.520   1.589   1.523   1.508   1.454   1.461   1.492   1.483   1.480   1.463   1.426   1.432   1.478   1.448   1.429   1.425   1.431   1.434   1.409   1.379   1.401   1.446   1.495   1.512   1.479   1.480   1.590   1.515   1.496   1.499
   111.98    1.488   1.455   1.506   1.486   1.520   1.540   1.488   1.517   1.435   1.491   1.466   1.434   1.463   1.397   1.440   1.485   1.442   1.431   1.436   1.458   1.429   1.440   1.391   1.387   1.445   1.504   1.546   1.560   1.504   1.536   1.522   1.500   1.533
   107.91    1.500   1.563   1.505   1.472   1.489   1.470   1.486   1.470   1.471   1.469   1.507   1.525   1.455   1.415   1.423   1.514   1.525   1.488   1.510   1.510   1.507   1.462   1.427   1.413   1.476   1.544   1.502   1.515   1.523   1.586   1.546   1.540   1.534
   103.85    1.627   1.580   1.558   1.542   1.505   1.464   1.491   1.495   1.485   1.548   1.511   1.505   1.459   1.450   1.482   1.510   1.481   1.526   1.507   1.532   1.511   1.510   1.438   1.462   1.464   1.549   1.512   1.580   1.606   1.590   1.605   1.631   1.586
    99.79    1.574   1.581   1.516   1.526   1.480   1.545   1.457   1.510   1.503   1.554   1.528   1.567   1.528   1.523   1.528   1.536   1.487   1.494   1.551   1.522   1.490   1.481   1.524   1.505   1.527   1.537   1.527   1.512   1.587   1.579   1.606   1.650   1.637
    95.73    1.565   1.474   1.495   1.496   1.570   1.560   1.521   1.495   1.536   1.516   1.501   1.544   1.522   1.509   1.504   1.507   1.552   1.521   1.515   1.501   1.506   1.455   1.522   1.552   1.561   1.557   1.509   1.546   1.599   1.601   1.585   1.616   1.671
    91.66    1.546   1.529   1.494   1.531   1.526   1.517   1.496   1.509   1.563   1.550   1.462   1.451   1.480   1.467   1.496   1.507   1.527   1.489   1.502   1.517   1.445   1.533   1.517   1.555   1.550   1.521   1.528   1.620   1.574   1.601   1.582   1.545   1.645
    87.60    1.507   1.469   1.477   1.498   1.451   1.454   1.513   1.559   1.516   1.484   1.445   1.401   1.446   1.449   1.429   1.406   1.429   1.465   1.410   1.423   1.467   1.484   1.470   1.515   1.516   1.478   1.479   1.528   1.587   1.590   1.570   1.607   1.591
    83.54    1.447   1.455   1.523   1.477   1.433   1.418   1.494   1.545   1.511   1.456   1.421   1.424   1.387   1.399   1.414   1.455   1.440   1.512   1.440   1.449   1.412   1.450   1.522   1.543   1.540   1.461   1.542   1.565   1.538   1.530   1.564   1.610   1.619
    79.48    1.437   1.482   1.464   1.453   1.442   1.452   1.535   1.471   1.531   1.486   1.466   1.476   1.429   1.431   1.386   1.441   1.471   1.483   1.436   1.393   1.416   1.471   1.503   1.514   1.518   1.499   1.563   1.537   1.526   1.547   1.599   1.560   1.597
    75.41    1.511   1.523   1.506   1.510   1.431   1.397   1.458   1.452   1.495   1.458   1.513   1.511   1.455   1.447   1.454   1.402   1.430   1.422   1.441   1.426   1.454   1.527   1.513   1.510   1.476   1.539   1.549   1.563   1.468   1.536   1.580   1.641   1.546
    71.35    1.585   1.587   1.541   1.485   1.484   1.415   1.401   1.506   1.462   1.502   1.512   1.479   1.470   1.536   1.486   1.376   1.388   1.431   1.461   1.417   1.418   1.509   1.508   1.521   1.486   1.571   1.585   1.576   1.545   1.557   1.562   1.585   1.505
    67.29    1.583   1.533   1.551   1.521   1.444   1.471   1.432   1.430   1.459   1.463   1.504   1.437   1.390   1.443   1.438   1.449   1.448   1.498   1.424   1.450   1.449   1.539   1.514   1.481   1.459   1.477   1.550   1.583   1.561   1.493   1.564   1.549   1.536
    63.23    1.517   1.589   1.586   1.511   1.485   1.404   1.482   1.480   1.388   1.476   1.503   1.487   1.441   1.447   1.437   1.501   1.498   1.562   1.504   1.400   1.454   1.518   1.559   1.512   1.541   1.512   1.555   1.580   1.560   1.497   1.541   1.555   1.507
    59.16    1.557   1.599   1.543   1.524   1.489   1.430   1.452   1.519   1.453   1.445   1.454   1.494   1.496   1.463   1.487   1.477   1.515   1.528   1.533   1.493   1.479   1.511   1.525   1.516   1.556   1.525   1.533   1.584   1.619   1.587   1.565   1.562   1.517
    55.10    1.570   1.607   1.603   1.534   1.521   1.503   1.556   1.522   1.474   1.419   1.457   1.485   1.495   1.474   1.456   1.493   1.446   1.534   1.533   1.538   1.499   1.498   1.513   1.511   1.507   1.544   1.529   1.563   1.556   1.578   1.504   1.531   1.497
    51.04    1.605   1.558   1.586   1.550   1.543   1.481   1.488   1.437   1.422   1.407   1.439   1.436   1.516   1.525   1.499   1.400   1.445   1.483   1.513   1.455   1.428   1.460   1.556   1.580   1.553   1.499   1.547   1.576   1.515   1.592   1.589   1.558   1.455
    46.98    1.555   1.539   1.513   1.497   1.475   1.517   1.484   1.454   1.481   1.454   1.459   1.470   1.465   1.474   1.454   1.448   1.422   1.418   1.428   1.475   1.497   1.482   1.552   1.596   1.532   1.491   1.536   1.589   1.543   1.552   1.574   1.509   1.523
    42.91    1.554   1.475   1.563   1.475   1.525   1.564   1.524   1.500   1.488   1.532   1.490   1.506   1.499   1.477   1.463   1.438   1.417   1.462   1.465   1.488   1.467   1.536   1.516   1.611   1.585   1.569   1.567   1.600   1.565   1.554   1.553   1.529   1.523
    38.85    1.533   1.525   1.490   1.460   1.472   1.515   1.519   1.490   1.496   1.501   1.497   1.490   1.443   1.416   1.395   1.412   1.410   1.468   1.468   1.438   1.416   1.533   1.560   1.567   1.584   1.563   1.582   1.622   1.558   1.594   1.507   1.489   1.505
    34.79    1.487   1.480   1.502   1.467   1.469   1.496   1.470   1.532   1.542   1.488   1.489   1.548   1.456   1.435   1.418   1.443   1.475   1.442   1.470   1.461   1.443   1.445   1.541   1.552   1.562   1.590   1.589   1.573   1.530   1.527   1.497   1.526   1.533
    30.73    1.520   1.522   1.560   1.507   1.505   1.475   1.522   1.522   1.482   1.483   1.496   1.491   1.429   1.436   1.446   1.440   1.452   1.474   1.469   1.434   1.488   1.483   1.546   1.549   1.590   1.556   1.556   1.549   1.512   1.503   1.537   1.520   1.544
    26.66    1.481   1.532   1.567   1.526   1.546   1.520   1.544   1.555   1.481   1.441   1.490   1.477   1.479   1.435   1.472   1.469   1.476   1.512   1.454   1.483   1.482   1.520   1.522   1.530   1.505   1.583   1.590   1.556   1.520   1.506   1.550   1.547   1.583
    22.60    1.535   1.518   1.548   1.562   1.587   1.563   1.541   1.511   1.511   1.473   1.521   1.474   1.508   1.492   1.467   1.471   1.479   1.522   1.491   1.476   1.474   1.470   1.497   1.504   1.517   1.516   1.541   1.536   1.525   1.562   1.508   1.482   1.544

   Mean standard deviation across all grid points:
      u component:    2.237 m/s
      v component:    1.820 m/s
      w component:    1.495 m/s


U-component (X) statistics from the hub grid point:

   Mean =  22.0000 m/s
   TI   =   9.5316 %

Nyquist frequency of turbulent wind field =        10.000 Hz


Processing complete.  307.91 CPU seconds used.
