
This summary file was generated by TurbSim (v1.06.00, 21-Sep-2012) on 13-Aug-2020 at 11:55:40.


Runtime Options:

   2318573  Random seed #1
    RANLUX  Type of random number generator
         F  Output binary HH turbulence parameters?
         F  Output formatted turbulence parameters?
         F  Output AeroDyn HH files?
         T  Output AeroDyn FF files?
         F  Output BLADED FF files?
         T  Output tower data?
         F  Output formatted FF files?
         F  Output coherent turbulence time step file?
         T  Clockwise rotation when looking downwind?
 0 -  NONE  IEC turbulence models scaled to exact specified standard deviation


Turbine/Model Specifications:

        31  Vertical grid-point matrix dimension
        31  Horizontal grid-point matrix dimension
     0.050  Time step [seconds]
   600.000  Analysis time [seconds]
   600.000  Usable output time [seconds]
    87.600  Hub height [m]
   140.000  Grid height [m]
   140.000  Grid width [m]
     0.000  Vertical flow angle [degrees]
     0.000  Horizontal flow angle [degrees]


Meteorological Boundary Conditions:

    SMOOTH  RISO Smooth Terrain spectral model
       N/A  IEC standard
       N/A  IEC turbulence characteristic
       N/A  IEC turbulence type
       N/A  IEC Extreme Turbulence Model (ETM) "c" parameter [m/s]
       IEC  Wind profile type
    90.000  Reference height [m]
    20.000  Reference wind speed [m/s]
       N/A  Jet height [m]
     0.143  Power law exponent
     0.010  Surface roughness length [m]


Non-IEC Meteorological Boundary Conditions:

    45.000  Site latitude [degrees]
     0.050  Gradient Richardson number
     0.848  Friction or shear velocity [m/s]
       N/A  Mixing layer depth [m]
    -0.718  Mean hub u'w' Reynolds stress
       N/A  Mean hub u'v' Reynolds stress
       N/A  Mean hub v'w' Reynolds stress
(   19.923,  0.00    )  u-component coherence parameters
(   14.942,  0.00    )  v-component coherence parameters
(   14.942,  0.00    )  w-component coherence parameters
     0.000  Coherence exponent


You have requested that the following file(s) be generated:

   unsteady_10min_multi.bts (AeroDyn/TurbSim full-field wind file)


Turbulence Simulation Scaling Parameter Summary:

   Turbulence model used                            =  RISO Smooth Terrain
   Gradient Richardson number                       =    0.050
   Monin-Obukhov (M-O) z/L parameter                =    0.067
   Monin-Obukhov (M-O) length scale                 = 1314.000 m
   Mean wind speed at hub height                    =   19.923 m/s

   Wind profile type                                =  Power law on rotor disk, logarithmic elsewhere
   Power law exponent                               =    0.143
   Mean shear across rotor disk                     =    0.038 (m/s)/m
   Assumed rotor diameter                           =  140.000 m
   Surface roughness length                         =    0.010 m

   Number of time steps in the FFT                  =    12144
   Number of time steps output                      =    12141


Mean Flow Angles:

   Vertical   =   0.0 degrees
   Horizontal =   0.0 degrees

Mean Wind Speed Profile:

   Height    Wind Speed   Horizontal Angle  U-comp (X)   V-comp (Y)   W-comp (Z)
     (m)        (m/s)         (degrees)       (m/s)        (m/s)        (m/s)   
   ------    ----------   ----------------  ----------   ----------   ----------
    157.6       21.21            0.00         21.21         0.00         0.00
    152.9       21.58            0.00         21.58         0.00         0.00
    148.3       21.48            0.00         21.48         0.00         0.00
    143.6       21.38            0.00         21.38         0.00         0.00
    138.9       21.28            0.00         21.28         0.00         0.00
    134.3       21.18            0.00         21.18         0.00         0.00
    129.6       21.07            0.00         21.07         0.00         0.00
    124.9       20.96            0.00         20.96         0.00         0.00
    120.3       20.85            0.00         20.85         0.00         0.00
    115.6       20.73            0.00         20.73         0.00         0.00
    110.9       20.61            0.00         20.61         0.00         0.00
    106.3       20.48            0.00         20.48         0.00         0.00
    101.6       20.35            0.00         20.35         0.00         0.00
     96.9       20.21            0.00         20.21         0.00         0.00
     92.3       20.07            0.00         20.07         0.00         0.00
     87.6       19.92            0.00         19.92         0.00         0.00
     82.9       19.77            0.00         19.77         0.00         0.00
     78.3       19.60            0.00         19.60         0.00         0.00
     73.6       19.43            0.00         19.43         0.00         0.00
     68.9       19.25            0.00         19.25         0.00         0.00
     64.3       19.06            0.00         19.06         0.00         0.00
     59.6       18.86            0.00         18.86         0.00         0.00
     54.9       18.64            0.00         18.64         0.00         0.00
     50.3       18.40            0.00         18.40         0.00         0.00
     45.6       18.15            0.00         18.15         0.00         0.00
     40.9       17.87            0.00         17.87         0.00         0.00
     36.3       17.56            0.00         17.56         0.00         0.00
     31.6       17.22            0.00         17.22         0.00         0.00
     26.9       16.83            0.00         16.83         0.00         0.00
     22.3       16.38            0.00         16.38         0.00         0.00
     17.6       15.84            0.00         15.84         0.00         0.00
     12.9       15.72            0.00         15.72         0.00         0.00
      8.3       14.74            0.00         14.74         0.00         0.00
      3.6       12.92            0.00         12.92         0.00         0.00


Harvested Random Seeds after Generation of the Random Numbers:

    163163748 K1
            0 K2


Scaling statistics from the hub grid point:

   Cross-Component  Scaling Factor
   ---------------  --------------
   u'w'               -0.18403E+00
   u'v'                0.00000E+00
   v'w'                0.00000E+00


Hub-Height Simulated Turbulence Statistical Summary:

   Type of Wind        Min (m/s)   Mean (m/s)    Max (m/s)  Sigma (m/s)       TI (%)
   ----------------    ---------   ----------    ---------  -----------       ------
   Longitudinal (u)        13.48        19.92        27.61        2.099       10.536
   Lateral (v)             -6.38         0.00         6.23        1.783        8.952
   Vertical (w)            -4.82         0.00         5.11        1.291        6.482
   U component             13.48        19.92        27.61        2.099       10.536
   V component             -6.38         0.00         6.23        1.783        8.952
   W component             -4.82         0.00         5.11        1.291        6.482
   Horizontal (U&V)        13.55        20.00        27.61        2.088       10.436
   Total                   13.58        20.05        27.61        2.084       10.395

                       Min Reynolds     Mean Reynolds    Max Reynolds    Correlation
   Product             Stress (m/s)^2   Stress (m/s)^2   Stress (m/s)^2  Coefficient
   ----------------    --------------   --------------   --------------  -----------
   u'w'                    -18.255            -0.718             9.235        -0.265
   u'v'                    -22.378            -0.108            19.830        -0.029
   v'w'                    -14.382             0.032            19.691         0.014


   Friction Velocity (Ustar)  =      0.848 m/s
   Maximum Instantaneous TKE  =     30.288 (m/s)^2
   Maximum Instantaneous CTKE =     13.011 (m/s)^2


Grid Point Variance Summary:

   Y-coord  -70.00  -65.33  -60.67  -56.00  -51.33  -46.67  -42.00  -37.33  -32.67  -28.00  -23.33  -18.67  -14.00   -9.33   -4.67    0.00    4.67    9.33   14.00   18.67   23.33   28.00   32.67   37.33   42.00   46.67   51.33   56.00   60.67   65.33   70.00

   Height   Standard deviation at grid points for the u component:
   157.60    1.771   1.842   1.839   1.855   1.777   1.796   1.884   1.888   1.923   1.924   1.903   1.986   1.814   1.828   1.831   1.878   1.914   1.919   1.964   1.898   1.890   1.786   1.777   1.894   1.950   1.969   2.076   2.112   2.078   2.035   1.943
   152.93    1.809   1.817   1.779   1.818   1.842   1.951   1.936   1.965   2.091   1.981   1.931   1.913   1.876   1.849   1.841   1.878   1.927   1.919   1.969   1.968   1.878   1.868   1.917   1.816   1.931   2.088   2.128   2.067   2.044   1.857   1.870
   148.27    1.846   1.979   2.005   1.996   2.049   2.024   2.019   1.988   2.013   1.982   1.893   1.855   1.965   1.882   1.826   1.772   1.870   1.829   1.905   1.861   1.901   1.880   1.831   1.844   1.912   2.018   2.112   2.107   2.126   2.000   1.933
   143.60    1.859   1.967   2.014   2.079   2.022   1.979   2.000   2.029   1.888   1.858   1.866   1.846   1.902   1.814   1.847   1.938   1.968   1.849   1.924   1.947   1.825   1.805   1.811   1.755   1.723   1.865   2.024   1.993   2.062   2.032   1.938
   138.93    1.837   1.907   2.000   1.982   1.990   1.920   1.891   1.927   1.944   1.901   1.942   1.894   1.860   1.838   1.870   1.875   1.965   1.905   1.824   1.887   1.834   1.791   1.809   1.809   1.772   1.885   1.947   1.953   1.869   1.909   1.972
   134.27    1.918   1.920   1.882   2.011   2.038   2.015   2.025   1.980   1.885   1.845   1.960   1.904   1.898   1.926   1.941   1.922   1.895   1.881   1.891   1.906   1.792   1.814   1.827   1.816   1.863   1.816   1.858   1.857   1.890   1.888   1.822
   129.60    1.788   1.917   2.006   2.082   2.107   2.032   2.016   1.952   1.922   1.881   1.972   1.899   1.933   1.962   1.900   1.900   1.833   1.873   1.804   1.802   1.838   1.712   1.727   1.780   1.734   1.773   1.697   1.590   1.685   1.774   1.807
   124.93    1.886   1.971   1.980   2.034   2.031   2.037   2.018   1.959   1.988   1.909   1.882   1.954   1.997   1.982   1.874   1.913   1.961   1.785   1.834   1.900   1.742   1.813   1.806   1.721   1.703   1.709   1.687   1.640   1.761   1.716   1.796
   120.27    1.895   1.940   2.043   2.097   2.077   2.105   2.032   1.967   1.979   1.885   1.945   2.046   1.953   1.975   1.973   1.967   1.913   1.904   1.834   1.841   1.779   1.817   1.756   1.826   1.710   1.826   1.709   1.720   1.877   1.798   1.846
   115.60    1.924   1.938   2.059   2.047   2.095   2.070   2.011   1.941   1.795   1.858   1.941   2.001   1.954   1.910   2.017   1.955   1.964   1.879   1.837   1.786   1.849   1.858   1.783   1.824   1.865   1.839   1.871   1.785   1.740   1.860   1.816
   110.93    1.969   1.995   2.002   2.065   2.075   2.030   2.015   2.059   1.900   1.958   1.960   1.999   2.083   2.004   2.010   2.015   2.008   1.960   1.825   1.854   1.860   1.872   1.893   1.811   1.874   1.887   1.843   1.786   1.767   1.787   1.811
   106.27    2.077   2.081   2.096   2.096   2.077   1.999   2.005   1.954   1.946   1.952   1.836   1.942   1.998   1.977   2.028   2.121   2.095   2.021   1.930   1.821   1.911   1.982   1.919   1.973   1.966   1.941   1.827   1.832   1.761   1.625   1.670
   101.60    2.138   2.204   2.057   2.101   2.176   2.060   2.047   2.024   2.076   2.013   2.030   1.893   1.879   1.853   1.938   2.052   2.067   1.995   1.921   1.891   1.848   1.941   1.981   2.023   2.041   2.020   1.913   1.879   1.768   1.690   1.773
    96.93    2.093   2.135   2.157   2.202   2.168   2.040   2.069   1.997   2.001   1.925   1.912   1.948   1.891   1.783   1.950   2.002   2.013   1.998   1.879   1.867   1.902   1.964   1.941   2.113   2.044   2.034   1.936   1.998   1.911   1.916   1.748
    92.27    1.989   2.153   2.151   2.141   2.103   2.141   1.951   1.902   1.947   1.918   1.875   1.988   1.969   2.005   2.018   2.092   2.041   2.073   2.036   1.985   1.992   2.012   2.028   2.070   2.027   2.029   1.946   1.921   1.985   1.840   1.741
    87.60    2.075   2.173   2.158   2.146   2.122   2.113   2.046   2.020   2.029   1.939   1.922   2.016   2.035   2.067   2.072   2.099   2.095   2.108   2.149   2.064   2.015   2.067   2.091   2.125   2.088   2.028   1.995   2.005   1.956   1.911   1.791
    82.93    2.049   2.075   2.141   2.134   2.110   2.033   2.138   2.081   2.075   2.085   2.022   2.031   2.040   2.088   1.949   1.962   2.055   2.018   2.109   2.057   2.020   2.069   2.044   2.161   2.141   2.114   2.089   2.045   2.001   2.018   1.941
    78.27    2.092   2.075   2.132   2.258   2.251   2.085   2.150   2.156   2.163   2.122   2.018   2.118   1.966   1.915   2.055   2.061   2.119   2.090   2.099   2.035   2.065   2.058   2.040   2.086   2.168   2.218   2.116   2.095   2.011   1.965   1.884
    73.60    1.994   2.089   2.233   2.291   2.245   2.136   2.250   2.225   2.217   1.989   2.058   2.100   2.048   2.026   2.095   2.009   2.093   2.138   2.089   2.071   2.026   2.105   2.107   2.079   2.109   2.147   2.109   2.033   2.015   2.066   1.957
    68.93    2.055   2.176   2.204   2.268   2.190   2.113   2.237   2.145   2.114   2.037   2.175   2.086   1.967   1.975   1.989   1.965   1.961   1.951   2.002   1.982   1.987   2.035   1.990   1.996   1.983   2.089   2.028   2.031   1.963   2.031   1.951
    64.27    2.095   2.172   2.232   2.369   2.284   2.206   2.179   2.117   2.059   2.174   2.108   2.077   1.998   1.981   2.010   2.068   1.962   1.953   1.851   1.973   2.050   2.011   1.993   1.950   2.053   1.970   2.015   1.922   1.924   1.910   2.008
    59.60    2.242   2.180   2.218   2.308   2.307   2.183   2.157   2.133   2.251   2.203   2.065   2.065   2.056   2.014   2.083   1.984   2.080   1.949   1.976   2.031   2.005   2.107   2.129   2.062   2.058   2.002   1.971   2.025   1.845   1.872   2.010
    54.93    2.179   2.246   2.236   2.208   2.341   2.286   2.278   2.245   2.166   2.199   2.149   2.058   2.050   2.009   1.950   1.996   2.037   2.024   1.876   2.085   2.111   2.148   2.100   2.087   2.093   2.066   1.996   2.048   2.001   1.928   2.036
    50.27    2.311   2.311   2.297   2.251   2.309   2.336   2.234   2.298   2.304   2.413   2.236   2.120   2.079   1.992   1.952   1.999   1.990   1.995   2.047   2.049   2.208   2.092   2.120   2.082   2.122   2.136   2.139   2.038   2.076   2.058   2.023
    45.60    2.363   2.305   2.295   2.225   2.399   2.318   2.284   2.272   2.344   2.362   2.237   2.081   2.085   2.023   1.985   2.025   2.063   1.906   1.941   2.024   2.074   2.064   1.977   2.053   2.135   2.127   2.132   2.120   2.055   2.037   2.003
    40.93    2.338   2.289   2.245   2.302   2.255   2.250   2.256   2.330   2.407   2.270   2.153   2.082   1.993   2.048   2.046   1.973   1.965   1.999   1.926   1.962   2.005   1.942   1.930   1.954   1.996   2.026   2.029   2.062   2.062   2.077   2.109
    36.27    2.204   2.317   2.257   2.259   2.295   2.084   2.241   2.227   2.150   2.159   2.037   2.124   1.981   1.935   2.051   2.143   1.988   2.003   1.960   1.906   1.972   1.894   1.930   1.943   1.977   1.929   2.035   2.064   2.051   2.091   2.142
    31.60    2.245   2.212   2.205   2.289   2.245   2.162   2.116   2.210   2.171   2.102   2.021   2.056   2.035   1.983   1.969   2.090   2.132   2.079   2.096   1.900   1.906   2.002   1.985   1.931   1.937   1.990   1.914   2.023   2.056   2.038   2.096
    26.93    2.237   2.264   2.193   2.276   2.215   2.219   2.169   2.106   2.221   2.138   2.055   2.066   2.044   2.014   1.945   2.043   2.080   2.029   2.047   2.090   2.023   2.008   1.996   1.922   1.944   1.898   1.888   1.946   1.967   1.972   1.929
    22.27    2.244   2.229   2.172   2.190   2.140   2.083   2.108   2.184   2.164   2.163   2.250   2.088   1.973   2.086   2.005   2.089   2.016   2.003   2.112   2.102   2.035   1.987   1.965   1.985   1.990   2.004   1.932   1.847   1.898   1.906   1.933
    17.60    2.190   2.150   2.202   2.178   2.142   2.087   2.204   2.108   2.111   2.173   2.249   2.254   2.108   2.167   2.106   2.101   2.101   2.018   2.107   2.150   2.118   2.113   2.110   2.121   2.121   2.086   2.018   1.969   1.896   1.954   1.968

   Height   Standard deviation at grid points for the v component:
   157.60    1.605   1.613   1.579   1.536   1.585   1.642   1.626   1.539   1.597   1.685   1.687   1.669   1.679   1.706   1.677   1.642   1.616   1.605   1.653   1.623   1.681   1.708   1.693   1.771   1.782   1.757   1.722   1.691   1.636   1.662   1.642
   152.93    1.606   1.602   1.601   1.539   1.595   1.654   1.637   1.581   1.627   1.719   1.755   1.758   1.748   1.705   1.707   1.688   1.661   1.682   1.691   1.656   1.656   1.760   1.700   1.726   1.750   1.735   1.683   1.640   1.589   1.652   1.673
   148.27    1.510   1.550   1.576   1.552   1.573   1.556   1.622   1.600   1.688   1.727   1.731   1.782   1.766   1.671   1.702   1.637   1.665   1.684   1.649   1.654   1.689   1.716   1.765   1.724   1.696   1.692   1.652   1.633   1.625   1.680   1.693
   143.60    1.523   1.462   1.529   1.585   1.586   1.640   1.621   1.647   1.642   1.695   1.684   1.691   1.741   1.710   1.716   1.706   1.728   1.689   1.682   1.673   1.729   1.790   1.822   1.803   1.678   1.659   1.718   1.668   1.664   1.760   1.720
   138.93    1.491   1.491   1.523   1.553   1.612   1.591   1.597   1.601   1.688   1.685   1.652   1.703   1.773   1.733   1.768   1.707   1.715   1.725   1.633   1.727   1.729   1.740   1.746   1.791   1.728   1.726   1.717   1.662   1.703   1.743   1.762
   134.27    1.476   1.500   1.483   1.564   1.637   1.649   1.631   1.642   1.690   1.669   1.615   1.730   1.737   1.821   1.763   1.735   1.692   1.645   1.676   1.747   1.712   1.757   1.706   1.768   1.806   1.786   1.765   1.705   1.688   1.723   1.818
   129.60    1.575   1.528   1.595   1.558   1.589   1.613   1.662   1.646   1.750   1.724   1.688   1.754   1.756   1.692   1.702   1.763   1.773   1.635   1.685   1.669   1.731   1.745   1.719   1.707   1.763   1.801   1.761   1.754   1.713   1.743   1.753
   124.93    1.698   1.636   1.589   1.559   1.511   1.609   1.678   1.661   1.738   1.704   1.685   1.690   1.632   1.664   1.696   1.697   1.727   1.659   1.606   1.729   1.764   1.750   1.713   1.686   1.734   1.760   1.743   1.760   1.653   1.759   1.776
   120.27    1.714   1.640   1.534   1.536   1.544   1.575   1.698   1.753   1.626   1.607   1.609   1.600   1.533   1.589   1.660   1.718   1.664   1.623   1.675   1.726   1.682   1.701   1.659   1.760   1.685   1.782   1.784   1.786   1.730   1.791   1.823
   115.60    1.596   1.562   1.542   1.520   1.562   1.575   1.647   1.702   1.575   1.569   1.555   1.554   1.576   1.532   1.610   1.708   1.723   1.702   1.650   1.711   1.721   1.659   1.720   1.735   1.746   1.829   1.848   1.787   1.738   1.788   1.850
   110.93    1.576   1.518   1.504   1.504   1.538   1.509   1.605   1.660   1.633   1.616   1.588   1.584   1.604   1.636   1.672   1.719   1.707   1.734   1.695   1.673   1.672   1.695   1.751   1.738   1.708   1.783   1.818   1.778   1.769   1.857   1.904
   106.27    1.603   1.528   1.472   1.554   1.619   1.576   1.678   1.625   1.645   1.657   1.590   1.542   1.611   1.636   1.740   1.729   1.693   1.744   1.648   1.649   1.721   1.705   1.777   1.689   1.762   1.870   1.834   1.846   1.804   1.840   1.870
   101.60    1.576   1.530   1.552   1.600   1.631   1.647   1.661   1.602   1.632   1.620   1.630   1.638   1.705   1.723   1.773   1.807   1.792   1.829   1.818   1.769   1.747   1.715   1.766   1.792   1.836   1.819   1.859   1.932   1.882   1.846   1.877
    96.93    1.645   1.597   1.596   1.635   1.635   1.654   1.703   1.644   1.680   1.668   1.700   1.691   1.722   1.690   1.774   1.787   1.861   1.847   1.879   1.845   1.718   1.775   1.798   1.793   1.814   1.786   1.823   1.879   1.842   1.875   1.869
    92.27    1.664   1.646   1.609   1.621   1.608   1.622   1.663   1.630   1.682   1.711   1.700   1.713   1.752   1.714   1.807   1.783   1.801   1.948   1.863   1.865   1.793   1.826   1.804   1.800   1.763   1.821   1.858   1.853   1.837   1.800   1.798
    87.60    1.618   1.657   1.666   1.651   1.711   1.678   1.708   1.644   1.662   1.638   1.628   1.627   1.721   1.770   1.744   1.783   1.843   1.840   1.789   1.825   1.784   1.775   1.815   1.824   1.753   1.750   1.881   1.877   1.849   1.849   1.776
    82.93    1.614   1.612   1.657   1.670   1.613   1.690   1.679   1.659   1.675   1.706   1.647   1.705   1.803   1.754   1.780   1.838   1.897   1.875   1.860   1.783   1.776   1.820   1.814   1.774   1.725   1.850   1.829   1.856   1.870   1.903   1.858
    78.27    1.564   1.611   1.683   1.658   1.689   1.683   1.644   1.636   1.639   1.708   1.613   1.725   1.816   1.801   1.864   1.903   1.859   1.886   1.867   1.855   1.784   1.798   1.813   1.760   1.771   1.815   1.822   1.785   1.872   1.854   1.841
    73.60    1.688   1.754   1.692   1.707   1.705   1.693   1.631   1.617   1.624   1.687   1.650   1.723   1.816   1.787   1.800   1.838   1.885   1.831   1.841   1.757   1.774   1.777   1.804   1.808   1.782   1.809   1.836   1.808   1.861   1.872   1.844
    68.93    1.772   1.764   1.766   1.672   1.672   1.628   1.648   1.644   1.687   1.722   1.692   1.737   1.710   1.752   1.735   1.787   1.836   1.810   1.791   1.784   1.756   1.775   1.756   1.789   1.772   1.772   1.743   1.851   1.788   1.767   1.761
    64.27    1.790   1.807   1.825   1.754   1.654   1.633   1.603   1.629   1.712   1.802   1.764   1.751   1.688   1.735   1.786   1.791   1.750   1.715   1.744   1.736   1.722   1.677   1.709   1.707   1.736   1.769   1.764   1.738   1.750   1.762   1.719
    59.60    1.805   1.776   1.795   1.711   1.726   1.660   1.696   1.669   1.692   1.763   1.762   1.703   1.701   1.729   1.761   1.803   1.820   1.741   1.740   1.647   1.646   1.668   1.684   1.731   1.700   1.736   1.731   1.754   1.717   1.786   1.739
    54.93    1.777   1.789   1.769   1.781   1.778   1.738   1.726   1.685   1.753   1.699   1.714   1.631   1.667   1.710   1.778   1.772   1.775   1.802   1.745   1.693   1.671   1.624   1.675   1.668   1.657   1.691   1.724   1.758   1.741   1.783   1.773
    50.27    1.795   1.807   1.855   1.836   1.816   1.715   1.673   1.677   1.682   1.685   1.655   1.674   1.711   1.702   1.722   1.764   1.785   1.746   1.683   1.697   1.694   1.642   1.613   1.653   1.702   1.748   1.734   1.717   1.752   1.713   1.770
    45.60    1.725   1.819   1.773   1.756   1.754   1.769   1.692   1.645   1.659   1.654   1.654   1.690   1.648   1.726   1.673   1.730   1.711   1.675   1.764   1.737   1.669   1.628   1.663   1.686   1.690   1.720   1.722   1.790   1.743   1.770   1.790
    40.93    1.777   1.774   1.709   1.720   1.753   1.771   1.685   1.640   1.659   1.652   1.686   1.678   1.688   1.723   1.765   1.703   1.730   1.778   1.755   1.729   1.634   1.672   1.663   1.678   1.701   1.641   1.694   1.720   1.755   1.734   1.758
    36.27    1.749   1.686   1.708   1.745   1.717   1.689   1.569   1.643   1.608   1.672   1.722   1.647   1.689   1.779   1.773   1.710   1.726   1.773   1.762   1.702   1.703   1.706   1.639   1.678   1.678   1.589   1.608   1.672   1.664   1.739   1.733
    31.60    1.731   1.738   1.762   1.740   1.713   1.683   1.616   1.660   1.692   1.754   1.753   1.687   1.698   1.737   1.736   1.742   1.662   1.664   1.683   1.709   1.699   1.722   1.701   1.696   1.638   1.587   1.607   1.626   1.648   1.728   1.740
    26.93    1.716   1.749   1.810   1.725   1.716   1.743   1.658   1.673   1.671   1.723   1.776   1.728   1.756   1.740   1.678   1.755   1.704   1.662   1.671   1.644   1.686   1.650   1.665   1.657   1.625   1.630   1.633   1.683   1.700   1.776   1.719
    22.27    1.691   1.757   1.748   1.796   1.729   1.692   1.687   1.696   1.667   1.711   1.724   1.686   1.670   1.662   1.667   1.671   1.678   1.700   1.690   1.672   1.655   1.702   1.699   1.689   1.662   1.667   1.623   1.678   1.716   1.737   1.729
    17.60    1.655   1.674   1.704   1.711   1.703   1.710   1.702   1.685   1.670   1.692   1.655   1.642   1.603   1.616   1.672   1.662   1.653   1.706   1.708   1.714   1.684   1.678   1.689   1.672   1.649   1.645   1.613   1.649   1.679   1.697   1.668

   Height   Standard deviation at grid points for the w component:
   157.60    1.375   1.382   1.410   1.396   1.370   1.352   1.291   1.265   1.292   1.286   1.286   1.314   1.338   1.277   1.246   1.261   1.260   1.305   1.298   1.259   1.311   1.316   1.333   1.306   1.355   1.286   1.284   1.332   1.314   1.281   1.263
   152.93    1.309   1.327   1.345   1.357   1.355   1.332   1.306   1.266   1.291   1.299   1.289   1.302   1.320   1.259   1.213   1.217   1.251   1.286   1.269   1.305   1.309   1.277   1.352   1.368   1.298   1.321   1.320   1.321   1.276   1.305   1.284
   148.27    1.364   1.325   1.334   1.353   1.374   1.365   1.327   1.320   1.303   1.260   1.239   1.216   1.254   1.274   1.231   1.233   1.234   1.276   1.293   1.293   1.274   1.244   1.262   1.321   1.336   1.297   1.328   1.352   1.341   1.276   1.254
   143.60    1.351   1.347   1.306   1.373   1.360   1.353   1.301   1.318   1.248   1.239   1.296   1.293   1.256   1.245   1.233   1.251   1.216   1.238   1.281   1.236   1.226   1.245   1.264   1.301   1.284   1.263   1.297   1.322   1.299   1.253   1.251
   138.93    1.414   1.371   1.367   1.318   1.319   1.303   1.244   1.294   1.270   1.229   1.237   1.261   1.282   1.243   1.208   1.256   1.237   1.244   1.262   1.220   1.208   1.220   1.258   1.244   1.300   1.316   1.308   1.265   1.312   1.224   1.256
   134.27    1.395   1.410   1.366   1.335   1.310   1.272   1.284   1.258   1.231   1.198   1.203   1.235   1.227   1.285   1.285   1.260   1.264   1.290   1.258   1.260   1.234   1.215   1.231   1.266   1.286   1.324   1.293   1.284   1.259   1.256   1.255
   129.60    1.376   1.411   1.395   1.331   1.306   1.300   1.301   1.278   1.215   1.221   1.220   1.218   1.278   1.297   1.272   1.294   1.243   1.261   1.304   1.300   1.194   1.234   1.245   1.281   1.303   1.305   1.266   1.252   1.276   1.276   1.268
   124.93    1.385   1.413   1.373   1.346   1.366   1.339   1.350   1.308   1.248   1.254   1.262   1.276   1.278   1.317   1.244   1.266   1.274   1.267   1.273   1.302   1.259   1.260   1.267   1.315   1.283   1.329   1.235   1.277   1.309   1.282   1.281
   120.27    1.360   1.397   1.418   1.372   1.340   1.359   1.335   1.274   1.312   1.262   1.257   1.287   1.271   1.311   1.289   1.322   1.294   1.268   1.238   1.234   1.279   1.295   1.290   1.293   1.298   1.334   1.255   1.252   1.322   1.310   1.342
   115.60    1.377   1.417   1.400   1.342   1.359   1.359   1.382   1.332   1.317   1.286   1.293   1.304   1.286   1.335   1.339   1.319   1.252   1.264   1.290   1.283   1.377   1.341   1.317   1.313   1.313   1.285   1.285   1.292   1.325   1.336   1.331
   110.93    1.371   1.356   1.375   1.385   1.389   1.360   1.344   1.356   1.321   1.257   1.278   1.249   1.282   1.340   1.336   1.282   1.273   1.265   1.304   1.331   1.332   1.368   1.341   1.325   1.297   1.278   1.302   1.312   1.318   1.275   1.304
   106.27    1.376   1.343   1.337   1.383   1.370   1.336   1.357   1.378   1.290   1.254   1.253   1.256   1.271   1.280   1.312   1.321   1.285   1.270   1.326   1.304   1.321   1.319   1.326   1.324   1.304   1.301   1.281   1.304   1.292   1.276   1.263
   101.60    1.350   1.392   1.342   1.350   1.329   1.293   1.316   1.357   1.265   1.241   1.274   1.290   1.270   1.252   1.249   1.309   1.282   1.267   1.256   1.277   1.312   1.352   1.379   1.381   1.340   1.345   1.320   1.321   1.234   1.260   1.281
    96.93    1.336   1.350   1.343   1.355   1.375   1.341   1.292   1.299   1.281   1.288   1.273   1.310   1.268   1.297   1.274   1.316   1.306   1.269   1.264   1.308   1.353   1.359   1.380   1.385   1.348   1.299   1.274   1.315   1.272   1.268   1.244
    92.27    1.339   1.354   1.318   1.297   1.302   1.351   1.317   1.314   1.313   1.268   1.274   1.300   1.327   1.334   1.325   1.288   1.351   1.312   1.289   1.322   1.381   1.400   1.386   1.351   1.357   1.291   1.318   1.305   1.319   1.290   1.318
    87.60    1.315   1.319   1.288   1.309   1.337   1.325   1.277   1.280   1.297   1.298   1.256   1.293   1.357   1.345   1.315   1.291   1.321   1.317   1.344   1.369   1.370   1.414   1.398   1.422   1.322   1.372   1.342   1.315   1.316   1.309   1.340
    82.93    1.323   1.338   1.317   1.302   1.325   1.274   1.272   1.264   1.277   1.283   1.307   1.287   1.315   1.302   1.245   1.269   1.276   1.242   1.258   1.330   1.357   1.353   1.435   1.429   1.391   1.382   1.375   1.347   1.349   1.314   1.348
    78.27    1.310   1.327   1.343   1.317   1.322   1.267   1.265   1.285   1.258   1.290   1.302   1.323   1.317   1.254   1.265   1.247   1.266   1.273   1.280   1.318   1.320   1.390   1.414   1.409   1.407   1.416   1.403   1.310   1.320   1.307   1.348
    73.60    1.279   1.271   1.281   1.339   1.278   1.262   1.279   1.296   1.318   1.309   1.334   1.347   1.343   1.291   1.304   1.316   1.294   1.287   1.290   1.351   1.366   1.418   1.396   1.441   1.401   1.381   1.318   1.302   1.310   1.304   1.352
    68.93    1.288   1.334   1.323   1.316   1.292   1.293   1.357   1.319   1.329   1.357   1.347   1.335   1.353   1.304   1.299   1.280   1.321   1.319   1.302   1.344   1.402   1.374   1.361   1.389   1.428   1.393   1.329   1.336   1.313   1.315   1.354
    64.27    1.324   1.364   1.371   1.346   1.330   1.326   1.297   1.367   1.368   1.319   1.354   1.340   1.321   1.331   1.313   1.300   1.305   1.345   1.337   1.380   1.395   1.347   1.337   1.334   1.386   1.394   1.326   1.350   1.363   1.386   1.364
    59.60    1.293   1.334   1.369   1.332   1.359   1.347   1.353   1.343   1.341   1.329   1.311   1.325   1.315   1.333   1.319   1.297   1.304   1.341   1.349   1.369   1.358   1.344   1.336   1.359   1.392   1.387   1.381   1.364   1.356   1.351   1.378
    54.93    1.316   1.319   1.361   1.316   1.362   1.337   1.380   1.334   1.333   1.338   1.303   1.313   1.319   1.325   1.299   1.279   1.306   1.273   1.313   1.349   1.317   1.317   1.357   1.320   1.398   1.356   1.351   1.351   1.317   1.333   1.368
    50.27    1.312   1.314   1.310   1.306   1.347   1.369   1.319   1.340   1.346   1.325   1.350   1.338   1.331   1.341   1.313   1.301   1.285   1.295   1.319   1.310   1.334   1.329   1.346   1.338   1.344   1.350   1.370   1.367   1.372   1.330   1.356
    45.60    1.329   1.315   1.316   1.337   1.367   1.330   1.302   1.319   1.292   1.305   1.318   1.338   1.307   1.318   1.359   1.287   1.316   1.296   1.284   1.317   1.306   1.314   1.287   1.344   1.343   1.366   1.367   1.341   1.332   1.305   1.356
    40.93    1.331   1.346   1.311   1.336   1.349   1.319   1.307   1.330   1.345   1.346   1.330   1.293   1.328   1.317   1.316   1.287   1.322   1.356   1.279   1.274   1.285   1.301   1.295   1.314   1.308   1.341   1.313   1.355   1.327   1.348   1.309
    36.27    1.310   1.333   1.360   1.381   1.352   1.343   1.332   1.337   1.327   1.338   1.325   1.307   1.312   1.287   1.286   1.305   1.323   1.329   1.293   1.314   1.324   1.300   1.283   1.316   1.314   1.290   1.321   1.332   1.301   1.346   1.335
    31.60    1.288   1.315   1.328   1.336   1.319   1.308   1.342   1.350   1.381   1.359   1.315   1.345   1.301   1.268   1.289   1.300   1.309   1.322   1.329   1.297   1.324   1.316   1.300   1.327   1.307   1.337   1.322   1.324   1.321   1.341   1.309
    26.93    1.324   1.334   1.344   1.350   1.297   1.310   1.345   1.363   1.366   1.366   1.355   1.370   1.314   1.347   1.352   1.357   1.276   1.283   1.334   1.318   1.300   1.323   1.311   1.316   1.339   1.311   1.301   1.327   1.300   1.332   1.333
    22.27    1.321   1.311   1.297   1.317   1.282   1.306   1.312   1.330   1.328   1.343   1.306   1.328   1.316   1.347   1.348   1.336   1.300   1.290   1.295   1.282   1.289   1.312   1.295   1.327   1.342   1.325   1.327   1.316   1.298   1.324   1.342
    17.60    1.313   1.311   1.318   1.301   1.305   1.298   1.328   1.321   1.340   1.342   1.339   1.311   1.306   1.328   1.311   1.307   1.310   1.288   1.283   1.277   1.297   1.299   1.316   1.296   1.316   1.299   1.306   1.334   1.303   1.326   1.335

   Mean standard deviation across all grid points:
      u component:    2.007 m/s
      v component:    1.707 m/s
      w component:    1.314 m/s


U-component (X) statistics from the hub grid point:

   Mean =  19.9228 m/s
   TI   =  10.5361 %

Nyquist frequency of turbulent wind field =        10.000 Hz


Processing complete.  411.27 CPU seconds used.
