
This summary file was generated by TurbSim (v1.06.00, 21-Sep-2012) on 02-Sep-2020 at 21:11:23.


Runtime Options:

   2318573  Random seed #1
    RANLUX  Type of random number generator
         F  Output binary HH turbulence parameters?
         F  Output formatted turbulence parameters?
         F  Output AeroDyn HH files?
         T  Output AeroDyn FF files?
         F  Output BLADED FF files?
         T  Output tower data?
         F  Output formatted FF files?
         F  Output coherent turbulence time step file?
         T  Clockwise rotation when looking downwind?
 0 -  NONE  IEC turbulence models scaled to exact specified standard deviation


Turbine/Model Specifications:

        31  Vertical grid-point matrix dimension
        31  Horizontal grid-point matrix dimension
     0.050  Time step [seconds]
   600.000  Analysis time [seconds]
   600.000  Usable output time [seconds]
    87.600  Hub height [m]
   140.000  Grid height [m]
   140.000  Grid width [m]
     0.000  Vertical flow angle [degrees]
     0.000  Horizontal flow angle [degrees]


Meteorological Boundary Conditions:

    SMOOTH  RISO Smooth Terrain spectral model
       N/A  IEC standard
       N/A  IEC turbulence characteristic
       N/A  IEC turbulence type
       N/A  IEC Extreme Turbulence Model (ETM) "c" parameter [m/s]
       IEC  Wind profile type
    90.000  Reference height [m]
    16.000  Reference wind speed [m/s]
       N/A  Jet height [m]
     0.143  Power law exponent
     0.010  Surface roughness length [m]


Non-IEC Meteorological Boundary Conditions:

    45.000  Site latitude [degrees]
     0.050  Gradient Richardson number
     0.678  Friction or shear velocity [m/s]
       N/A  Mixing layer depth [m]
    -0.460  Mean hub u'w' Reynolds stress
       N/A  Mean hub u'v' Reynolds stress
       N/A  Mean hub v'w' Reynolds stress
(   15.938,  0.00    )  u-component coherence parameters
(   11.954,  0.00    )  v-component coherence parameters
(   11.954,  0.00    )  w-component coherence parameters
     0.000  Coherence exponent


You have requested that the following file(s) be generated:

   unsteady_tmp_16.bts (AeroDyn/TurbSim full-field wind file)


Turbulence Simulation Scaling Parameter Summary:

   Turbulence model used                            =  RISO Smooth Terrain
   Gradient Richardson number                       =    0.050
   Monin-Obukhov (M-O) z/L parameter                =    0.067
   Monin-Obukhov (M-O) length scale                 = 1314.000 m
   Mean wind speed at hub height                    =   15.938 m/s

   Wind profile type                                =  Power law on rotor disk, logarithmic elsewhere
   Power law exponent                               =    0.143
   Mean shear across rotor disk                     =    0.031 (m/s)/m
   Assumed rotor diameter                           =  140.000 m
   Surface roughness length                         =    0.010 m

   Number of time steps in the FFT                  =    12236
   Number of time steps output                      =    12176


Mean Flow Angles:

   Vertical   =   0.0 degrees
   Horizontal =   0.0 degrees

Mean Wind Speed Profile:

   Height    Wind Speed   Horizontal Angle  U-comp (X)   V-comp (Y)   W-comp (Z)
     (m)        (m/s)         (degrees)       (m/s)        (m/s)        (m/s)   
   ------    ----------   ----------------  ----------   ----------   ----------
    157.6       16.97            0.00         16.97         0.00         0.00
    152.9       17.26            0.00         17.26         0.00         0.00
    148.3       17.18            0.00         17.18         0.00         0.00
    143.6       17.11            0.00         17.11         0.00         0.00
    138.9       17.02            0.00         17.02         0.00         0.00
    134.3       16.94            0.00         16.94         0.00         0.00
    129.6       16.86            0.00         16.86         0.00         0.00
    124.9       16.77            0.00         16.77         0.00         0.00
    120.3       16.68            0.00         16.68         0.00         0.00
    115.6       16.58            0.00         16.58         0.00         0.00
    110.9       16.49            0.00         16.49         0.00         0.00
    106.3       16.38            0.00         16.38         0.00         0.00
    101.6       16.28            0.00         16.28         0.00         0.00
     96.9       16.17            0.00         16.17         0.00         0.00
     92.3       16.06            0.00         16.06         0.00         0.00
     87.6       15.94            0.00         15.94         0.00         0.00
     82.9       15.81            0.00         15.81         0.00         0.00
     78.3       15.68            0.00         15.68         0.00         0.00
     73.6       15.55            0.00         15.55         0.00         0.00
     68.9       15.40            0.00         15.40         0.00         0.00
     64.3       15.25            0.00         15.25         0.00         0.00
     59.6       15.08            0.00         15.08         0.00         0.00
     54.9       14.91            0.00         14.91         0.00         0.00
     50.3       14.72            0.00         14.72         0.00         0.00
     45.6       14.52            0.00         14.52         0.00         0.00
     40.9       14.30            0.00         14.30         0.00         0.00
     36.3       14.05            0.00         14.05         0.00         0.00
     31.6       13.78            0.00         13.78         0.00         0.00
     26.9       13.46            0.00         13.46         0.00         0.00
     22.3       13.10            0.00         13.10         0.00         0.00
     17.6       12.67            0.00         12.67         0.00         0.00
     12.9       12.58            0.00         12.58         0.00         0.00
      8.3       11.79            0.00         11.79         0.00         0.00
      3.6       10.33            0.00         10.33         0.00         0.00


Harvested Random Seeds after Generation of the Random Numbers:

    164399837 K1
            0 K2


Scaling statistics from the hub grid point:

   Cross-Component  Scaling Factor
   ---------------  --------------
   u'w'               -0.12919E+00
   u'v'                0.00000E+00
   v'w'                0.00000E+00


Hub-Height Simulated Turbulence Statistical Summary:

   Type of Wind        Min (m/s)   Mean (m/s)    Max (m/s)  Sigma (m/s)       TI (%)
   ----------------    ---------   ----------    ---------  -----------       ------
   Longitudinal (u)        10.69        15.94        22.35        1.977       12.405
   Lateral (v)             -3.70         0.00         4.27        1.152        7.228
   Vertical (w)            -3.46         0.00         3.92        1.061        6.659
   U component             10.69        15.94        22.35        1.977       12.405
   V component             -3.70         0.00         4.27        1.152        7.228
   W component             -3.46         0.00         3.92        1.061        6.659
   Horizontal (U&V)        10.73        15.98        22.35        1.981       12.396
   Total                   10.77        16.01        22.39        1.981       12.371

                       Min Reynolds     Mean Reynolds    Max Reynolds    Correlation
   Product             Stress (m/s)^2   Stress (m/s)^2   Stress (m/s)^2  Coefficient
   ----------------    --------------   --------------   --------------  -----------
   u'w'                    -13.169            -0.460            11.851        -0.219
   u'v'                    -12.012             0.060            18.341         0.026
   v'w'                     -7.103             0.019             8.170         0.015


   Friction Velocity (Ustar)  =      0.678 m/s
   Maximum Instantaneous TKE  =     21.422 (m/s)^2
   Maximum Instantaneous CTKE =      9.671 (m/s)^2


Grid Point Variance Summary:

   Y-coord  -70.00  -65.33  -60.67  -56.00  -51.33  -46.67  -42.00  -37.33  -32.67  -28.00  -23.33  -18.67  -14.00   -9.33   -4.67    0.00    4.67    9.33   14.00   18.67   23.33   28.00   32.67   37.33   42.00   46.67   51.33   56.00   60.67   65.33   70.00

   Height   Standard deviation at grid points for the u component:
   157.60    1.945   1.889   1.838   1.803   1.739   1.785   1.892   1.817   1.785   1.797   1.842   1.802   1.834   1.748   1.833   1.918   1.835   1.786   1.830   1.858   1.838   1.795   1.784   1.804   1.894   1.804   1.876   1.758   1.734   1.720   1.811
   152.93    2.010   1.970   1.855   1.785   1.804   1.815   1.871   1.878   1.833   1.859   1.793   1.797   1.698   1.866   1.889   1.892   1.864   1.835   1.897   1.804   1.821   1.829   1.735   1.819   1.761   1.812   1.832   1.778   1.751   1.779   1.846
   148.27    2.013   1.934   1.938   1.905   1.991   2.025   1.932   1.909   1.882   1.845   1.824   1.782   1.788   1.798   1.895   1.893   1.825   1.884   1.928   1.852   1.811   1.796   1.768   1.872   1.833   1.807   1.811   1.801   1.792   1.764   1.880
   143.60    1.974   1.933   2.002   1.962   1.935   2.002   2.053   2.005   1.928   1.839   1.893   1.831   1.807   1.829   1.857   1.869   1.894   1.869   1.779   1.783   1.832   1.763   1.780   1.867   1.745   1.761   1.824   1.784   1.783   1.814   1.829
   138.93    1.951   1.916   1.917   1.928   1.947   2.030   2.042   2.058   1.897   1.840   1.877   1.799   1.772   1.805   1.967   1.913   1.914   1.845   1.799   1.792   1.824   1.865   1.796   1.760   1.810   1.798   1.815   1.751   1.699   1.810   1.771
   134.27    1.985   1.964   2.060   2.035   2.034   2.066   1.950   2.087   2.014   1.986   1.890   1.876   1.765   1.842   1.880   1.894   1.835   1.842   1.783   1.835   1.909   1.816   1.826   1.848   1.893   1.898   1.767   1.658   1.650   1.768   1.713
   129.60    1.959   1.921   1.995   1.975   2.008   2.057   2.043   2.027   2.066   2.024   1.983   1.895   1.865   1.848   1.788   1.816   1.856   1.774   1.840   1.820   1.827   1.840   1.863   1.817   1.839   1.825   1.676   1.627   1.661   1.657   1.720
   124.93    2.025   2.014   1.968   1.999   1.946   1.965   2.008   2.012   2.064   2.066   2.067   2.040   1.921   1.853   1.819   1.766   1.864   1.818   1.810   1.850   1.915   1.802   1.815   1.864   1.773   1.754   1.719   1.694   1.667   1.616   1.624
   120.27    2.073   2.049   2.038   1.942   1.918   1.933   1.952   2.018   2.026   1.993   2.057   2.038   1.974   1.906   1.847   1.793   1.810   1.877   1.852   1.910   1.828   1.816   1.886   1.856   1.694   1.654   1.682   1.662   1.682   1.587   1.564
   115.60    2.036   1.980   1.943   1.946   1.912   1.901   1.889   2.003   2.040   2.042   2.048   2.052   1.987   1.892   1.857   1.858   1.841   1.794   1.829   1.884   1.789   1.754   1.807   1.795   1.702   1.740   1.731   1.677   1.709   1.690   1.561
   110.93    2.029   2.024   2.011   1.949   1.968   1.930   1.942   1.930   2.007   1.973   1.972   1.978   1.970   1.915   1.889   1.815   1.872   1.814   1.739   1.781   1.829   1.772   1.815   1.795   1.806   1.831   1.890   1.791   1.701   1.695   1.627
   106.27    1.934   1.977   1.929   1.987   1.996   1.920   2.042   1.962   2.063   2.044   2.071   2.016   1.970   2.068   1.965   1.951   1.951   1.853   1.797   1.807   1.781   1.782   1.822   1.826   1.930   1.830   1.807   1.818   1.721   1.715   1.643
   101.60    1.942   1.932   1.906   1.950   2.016   1.982   1.995   2.032   2.085   2.103   2.168   2.165   2.051   2.120   2.094   1.986   1.927   1.907   1.713   1.840   1.834   1.886   1.921   1.812   1.857   1.868   1.808   1.775   1.723   1.737   1.679
    96.93    1.938   1.943   1.910   1.932   1.912   1.957   1.995   1.996   2.025   2.126   2.183   2.158   2.169   2.180   2.110   2.086   1.878   1.779   1.768   1.817   1.846   1.948   1.950   1.863   1.921   1.841   1.830   1.802   1.805   1.748   1.673
    92.27    1.919   1.974   1.939   1.997   1.985   1.917   2.026   2.057   2.033   2.053   2.068   2.125   2.107   2.110   2.141   2.052   1.842   1.764   1.745   1.806   1.890   1.965   1.964   1.978   1.927   1.843   1.872   1.888   1.819   1.841   1.751
    87.60    1.921   1.982   2.010   1.929   1.924   1.932   1.987   2.043   2.015   2.042   1.924   1.989   2.007   2.064   2.074   1.977   1.869   1.808   1.750   1.875   1.943   1.989   2.000   2.076   2.001   2.008   1.837   1.894   1.707   1.718   1.688
    82.93    1.906   1.963   1.974   1.983   1.996   2.023   2.128   2.018   2.027   1.993   1.997   2.012   1.977   2.000   1.948   1.854   1.900   1.807   1.800   1.913   1.913   1.978   2.026   1.934   1.968   1.947   1.869   1.877   1.684   1.619   1.630
    78.27    1.961   1.967   1.985   2.051   2.092   2.114   2.078   2.011   1.981   1.941   1.981   1.974   2.006   2.024   1.926   1.908   1.855   1.891   1.896   1.887   1.875   2.051   2.014   1.939   1.883   1.933   1.868   1.840   1.713   1.586   1.580
    73.60    2.011   2.067   2.042   2.022   2.024   1.954   1.971   1.904   1.825   1.922   1.910   1.924   2.011   2.046   1.995   1.962   1.954   1.907   1.914   1.846   1.912   2.012   1.952   1.905   1.859   1.883   1.957   1.809   1.835   1.767   1.764
    68.93    1.952   2.002   2.039   1.971   2.000   1.962   1.930   1.854   1.796   1.860   1.933   1.913   1.925   2.074   2.036   1.948   1.913   1.949   1.946   1.822   1.876   1.853   1.881   1.785   1.796   1.757   1.806   1.862   1.898   1.890   1.869
    64.27    2.062   2.133   2.083   2.030   1.934   1.976   1.867   1.834   1.808   1.902   1.831   1.809   1.911   1.989   2.024   2.032   1.959   1.899   1.849   1.831   1.850   1.868   1.868   1.904   1.875   1.740   1.841   1.992   1.899   1.902   1.879
    59.60    2.011   2.128   2.122   1.976   2.029   1.908   1.877   1.842   1.853   1.803   1.699   1.749   1.830   1.948   1.926   1.934   1.903   1.870   1.888   1.814   1.797   1.832   1.884   1.878   1.806   1.811   1.858   1.878   1.928   1.917   1.845
    54.93    2.004   2.009   2.072   2.019   2.042   1.920   1.845   1.735   1.791   1.690   1.684   1.761   1.806   1.852   1.942   1.815   1.778   1.847   1.794   1.835   1.899   1.925   1.901   1.849   1.782   1.757   1.836   1.887   1.829   1.877   1.850
    50.27    2.003   2.099   2.004   2.011   1.916   1.913   1.824   1.749   1.757   1.694   1.678   1.728   1.817   1.873   1.817   1.773   1.698   1.796   1.859   1.840   1.833   1.841   1.867   1.764   1.698   1.708   1.713   1.784   1.762   1.796   1.887
    45.60    1.979   2.006   2.025   1.943   1.878   1.854   1.790   1.737   1.677   1.702   1.660   1.662   1.757   1.732   1.771   1.749   1.746   1.763   1.752   1.811   1.801   1.761   1.759   1.733   1.668   1.723   1.656   1.726   1.740   1.704   1.815
    40.93    1.959   1.969   1.935   1.786   1.779   1.828   1.841   1.801   1.657   1.585   1.673   1.693   1.738   1.774   1.810   1.809   1.689   1.674   1.700   1.753   1.797   1.764   1.742   1.745   1.664   1.691   1.754   1.803   1.782   1.762   1.884
    36.27    1.862   1.877   1.893   1.871   1.816   1.739   1.700   1.622   1.657   1.671   1.702   1.646   1.672   1.736   1.708   1.729   1.661   1.672   1.701   1.662   1.652   1.706   1.711   1.777   1.827   1.839   1.700   1.728   1.738   1.764   1.835
    31.60    1.913   1.913   1.850   1.830   1.835   1.778   1.687   1.660   1.627   1.690   1.717   1.765   1.759   1.761   1.746   1.778   1.670   1.673   1.683   1.597   1.589   1.615   1.637   1.822   1.847   1.828   1.738   1.779   1.748   1.730   1.789
    26.93    1.829   1.911   1.821   1.757   1.760   1.734   1.670   1.690   1.693   1.669   1.778   1.777   1.734   1.766   1.806   1.733   1.727   1.733   1.650   1.668   1.598   1.627   1.671   1.772   1.827   1.814   1.790   1.793   1.769   1.721   1.755
    22.27    1.870   1.838   1.866   1.720   1.737   1.623   1.660   1.632   1.793   1.787   1.822   1.772   1.737   1.781   1.825   1.778   1.739   1.661   1.617   1.593   1.648   1.647   1.701   1.781   1.808   1.817   1.766   1.740   1.806   1.787   1.824
    17.60    1.753   1.865   1.809   1.666   1.706   1.657   1.635   1.623   1.729   1.802   1.826   1.890   1.845   1.748   1.767   1.743   1.781   1.697   1.711   1.618   1.721   1.660   1.668   1.704   1.795   1.735   1.732   1.770   1.736   1.694   1.830

   Height   Standard deviation at grid points for the v component:
   157.60    1.208   1.197   1.187   1.171   1.209   1.189   1.239   1.189   1.128   1.164   1.260   1.303   1.329   1.312   1.248   1.268   1.185   1.184   1.175   1.206   1.188   1.148   1.151   1.208   1.192   1.200   1.189   1.163   1.199   1.185   1.172
   152.93    1.272   1.243   1.217   1.207   1.215   1.268   1.223   1.169   1.172   1.173   1.228   1.315   1.311   1.272   1.240   1.255   1.209   1.238   1.252   1.253   1.215   1.154   1.173   1.192   1.183   1.226   1.189   1.193   1.204   1.208   1.235
   148.27    1.270   1.268   1.237   1.206   1.239   1.216   1.233   1.173   1.191   1.149   1.176   1.260   1.251   1.181   1.192   1.212   1.243   1.266   1.271   1.216   1.253   1.189   1.177   1.185   1.220   1.209   1.231   1.230   1.231   1.196   1.234
   143.60    1.313   1.310   1.272   1.323   1.290   1.238   1.189   1.152   1.175   1.173   1.207   1.225   1.204   1.207   1.227   1.238   1.239   1.298   1.323   1.250   1.237   1.196   1.190   1.182   1.211   1.236   1.199   1.187   1.205   1.227   1.239
   138.93    1.378   1.322   1.305   1.287   1.268   1.247   1.223   1.169   1.097   1.174   1.227   1.234   1.193   1.194   1.205   1.217   1.240   1.234   1.335   1.272   1.233   1.266   1.228   1.192   1.190   1.249   1.224   1.228   1.212   1.259   1.290
   134.27    1.326   1.338   1.345   1.305   1.250   1.227   1.252   1.149   1.114   1.136   1.202   1.235   1.243   1.216   1.181   1.173   1.170   1.226   1.234   1.345   1.290   1.261   1.231   1.249   1.261   1.266   1.257   1.245   1.277   1.293   1.275
   129.60    1.321   1.336   1.310   1.308   1.261   1.245   1.250   1.195   1.151   1.184   1.199   1.224   1.204   1.190   1.177   1.159   1.156   1.194   1.250   1.286   1.282   1.215   1.210   1.244   1.219   1.275   1.328   1.311   1.322   1.296   1.262
   124.93    1.378   1.350   1.332   1.280   1.271   1.238   1.235   1.168   1.104   1.214   1.237   1.208   1.151   1.174   1.151   1.154   1.182   1.181   1.238   1.256   1.197   1.230   1.232   1.287   1.314   1.298   1.320   1.307   1.336   1.307   1.302
   120.27    1.335   1.355   1.351   1.326   1.280   1.256   1.234   1.163   1.155   1.160   1.197   1.208   1.167   1.125   1.164   1.147   1.136   1.183   1.162   1.124   1.180   1.179   1.237   1.283   1.289   1.312   1.296   1.278   1.337   1.361   1.336
   115.60    1.295   1.362   1.379   1.313   1.291   1.284   1.222   1.189   1.197   1.216   1.227   1.234   1.198   1.120   1.145   1.155   1.155   1.166   1.152   1.226   1.232   1.261   1.245   1.242   1.252   1.266   1.290   1.294   1.295   1.290   1.311
   110.93    1.316   1.372   1.365   1.384   1.331   1.357   1.258   1.217   1.246   1.261   1.210   1.220   1.189   1.129   1.160   1.114   1.160   1.158   1.191   1.217   1.248   1.231   1.212   1.245   1.232   1.202   1.273   1.283   1.268   1.271   1.324
   106.27    1.309   1.309   1.335   1.352   1.359   1.312   1.288   1.291   1.252   1.287   1.254   1.206   1.205   1.111   1.117   1.121   1.175   1.155   1.159   1.220   1.208   1.225   1.262   1.280   1.256   1.207   1.205   1.257   1.229   1.317   1.319
   101.60    1.253   1.266   1.320   1.294   1.291   1.367   1.329   1.296   1.279   1.307   1.236   1.188   1.196   1.106   1.120   1.211   1.228   1.208   1.208   1.235   1.220   1.225   1.225   1.251   1.233   1.222   1.233   1.277   1.300   1.327   1.365
    96.93    1.283   1.252   1.291   1.260   1.294   1.362   1.261   1.266   1.226   1.266   1.322   1.239   1.197   1.183   1.178   1.213   1.220   1.220   1.218   1.236   1.222   1.212   1.182   1.225   1.224   1.277   1.272   1.336   1.330   1.348   1.380
    92.27    1.285   1.289   1.199   1.224   1.276   1.258   1.315   1.277   1.251   1.326   1.319   1.301   1.247   1.217   1.188   1.201   1.174   1.237   1.200   1.205   1.211   1.233   1.192   1.209   1.200   1.221   1.224   1.300   1.342   1.337   1.358
    87.60    1.339   1.322   1.241   1.244   1.271   1.257   1.285   1.291   1.225   1.275   1.254   1.283   1.285   1.298   1.237   1.152   1.192   1.225   1.194   1.207   1.213   1.231   1.257   1.234   1.192   1.198   1.246   1.323   1.348   1.347   1.369
    82.93    1.396   1.289   1.307   1.289   1.281   1.268   1.251   1.266   1.290   1.222   1.259   1.219   1.274   1.281   1.282   1.226   1.243   1.227   1.202   1.205   1.202   1.192   1.245   1.245   1.194   1.210   1.261   1.303   1.337   1.378   1.390
    78.27    1.368   1.372   1.346   1.339   1.276   1.262   1.293   1.219   1.258   1.236   1.245   1.225   1.249   1.264   1.278   1.257   1.266   1.256   1.229   1.237   1.209   1.223   1.252   1.236   1.217   1.241   1.315   1.318   1.344   1.387   1.409
    73.60    1.336   1.323   1.388   1.394   1.283   1.260   1.271   1.297   1.263   1.234   1.263   1.269   1.255   1.239   1.271   1.259   1.256   1.219   1.229   1.253   1.240   1.237   1.270   1.264   1.239   1.252   1.322   1.324   1.333   1.377   1.407
    68.93    1.349   1.394   1.346   1.348   1.281   1.286   1.201   1.298   1.306   1.259   1.308   1.281   1.283   1.247   1.249   1.234   1.248   1.228   1.249   1.239   1.262   1.274   1.286   1.308   1.316   1.255   1.305   1.322   1.375   1.372   1.400
    64.27    1.372   1.386   1.338   1.283   1.277   1.288   1.281   1.295   1.345   1.287   1.270   1.309   1.282   1.234   1.241   1.264   1.261   1.280   1.242   1.248   1.298   1.320   1.276   1.233   1.278   1.297   1.294   1.363   1.337   1.385   1.391
    59.60    1.364   1.350   1.294   1.281   1.284   1.282   1.248   1.291   1.349   1.302   1.303   1.327   1.272   1.261   1.279   1.291   1.295   1.277   1.279   1.261   1.284   1.312   1.323   1.306   1.259   1.305   1.301   1.340   1.419   1.399   1.433
    54.93    1.345   1.373   1.335   1.280   1.242   1.288   1.247   1.297   1.294   1.284   1.283   1.262   1.240   1.237   1.275   1.285   1.276   1.249   1.277   1.272   1.296   1.301   1.328   1.287   1.282   1.273   1.257   1.330   1.331   1.352   1.411
    50.27    1.298   1.331   1.316   1.259   1.221   1.242   1.226   1.250   1.245   1.289   1.216   1.251   1.240   1.225   1.293   1.299   1.283   1.235   1.249   1.235   1.254   1.288   1.279   1.286   1.279   1.267   1.287   1.271   1.336   1.340   1.370
    45.60    1.322   1.276   1.280   1.253   1.234   1.238   1.251   1.229   1.224   1.231   1.233   1.240   1.199   1.233   1.279   1.320   1.281   1.242   1.232   1.231   1.231   1.274   1.255   1.299   1.267   1.291   1.273   1.321   1.343   1.375   1.344
    40.93    1.292   1.273   1.244   1.254   1.292   1.275   1.314   1.233   1.286   1.268   1.236   1.249   1.246   1.235   1.299   1.276   1.296   1.212   1.200   1.230   1.263   1.287   1.295   1.285   1.258   1.248   1.303   1.286   1.307   1.339   1.383
    36.27    1.299   1.312   1.282   1.288   1.232   1.257   1.323   1.284   1.309   1.246   1.279   1.280   1.277   1.279   1.311   1.260   1.248   1.251   1.215   1.254   1.212   1.276   1.293   1.281   1.262   1.247   1.334   1.353   1.353   1.325   1.340
    31.60    1.305   1.300   1.306   1.248   1.259   1.259   1.297   1.277   1.302   1.301   1.335   1.335   1.343   1.305   1.323   1.297   1.291   1.275   1.214   1.264   1.288   1.271   1.279   1.309   1.282   1.256   1.297   1.379   1.373   1.368   1.360
    26.93    1.312   1.294   1.287   1.316   1.292   1.326   1.326   1.321   1.347   1.347   1.362   1.372   1.326   1.343   1.302   1.271   1.300   1.290   1.288   1.281   1.317   1.323   1.329   1.305   1.323   1.303   1.289   1.327   1.365   1.398   1.365
    22.27    1.328   1.307   1.305   1.341   1.332   1.321   1.365   1.362   1.350   1.375   1.365   1.349   1.283   1.274   1.294   1.301   1.292   1.279   1.342   1.317   1.307   1.368   1.351   1.368   1.364   1.331   1.337   1.341   1.362   1.391   1.372
    17.60    1.328   1.314   1.354   1.348   1.365   1.337   1.368   1.322   1.346   1.312   1.321   1.332   1.280   1.304   1.324   1.341   1.304   1.328   1.322   1.329   1.345   1.378   1.372   1.356   1.343   1.339   1.327   1.351   1.358   1.343   1.367

   Height   Standard deviation at grid points for the w component:
   157.60    1.127   1.117   1.146   1.128   1.156   1.122   1.097   1.111   1.109   1.110   1.048   1.078   1.057   1.071   1.104   1.066   1.111   1.071   1.077   1.094   1.083   1.091   1.100   1.104   1.083   1.101   1.084   1.052   1.051   1.041   1.030
   152.93    1.118   1.106   1.096   1.094   1.121   1.115   1.102   1.126   1.081   1.088   1.062   1.036   1.067   1.082   1.087   1.056   1.058   1.069   1.067   1.090   1.062   1.075   1.072   1.087   1.065   1.016   1.055   1.018   1.020   1.042   1.036
   148.27    1.117   1.083   1.098   1.097   1.094   1.087   1.099   1.122   1.114   1.084   1.059   1.072   1.085   1.117   1.080   1.047   1.017   0.997   1.047   1.055   1.038   1.054   1.082   1.066   1.048   1.034   1.052   1.034   1.019   1.043   1.028
   143.60    1.085   1.088   1.082   1.104   1.080   1.121   1.099   1.117   1.115   1.093   1.111   1.067   1.106   1.126   1.079   1.085   1.069   1.050   1.046   1.031   1.027   1.075   1.060   1.062   1.026   1.038   1.056   1.039   1.029   1.028   0.994
   138.93    1.091   1.080   1.064   1.094   1.082   1.139   1.148   1.163   1.160   1.133   1.131   1.111   1.079   1.111   1.113   1.116   1.134   1.101   1.051   1.049   1.013   1.038   1.037   1.018   1.012   1.001   1.016   1.026   0.987   1.003   0.983
   134.27    1.072   1.110   1.115   1.113   1.124   1.130   1.129   1.168   1.193   1.143   1.148   1.161   1.117   1.092   1.136   1.153   1.102   1.126   1.090   1.073   1.036   1.043   0.987   1.032   1.030   1.011   1.017   1.008   0.992   1.006   0.999
   129.60    1.108   1.129   1.137   1.138   1.116   1.162   1.172   1.131   1.196   1.188   1.132   1.134   1.116   1.069   1.075   1.125   1.117   1.152   1.108   1.110   1.065   1.010   1.015   1.025   1.044   1.020   0.971   1.012   1.030   1.019   1.033
   124.93    1.092   1.126   1.125   1.105   1.106   1.115   1.154   1.140   1.174   1.164   1.153   1.126   1.093   1.101   1.096   1.153   1.181   1.157   1.104   1.091   1.078   1.029   1.040   1.043   1.054   0.997   0.985   1.002   1.030   1.007   1.008
   120.27    1.098   1.097   1.102   1.111   1.122   1.106   1.122   1.118   1.115   1.147   1.136   1.115   1.084   1.109   1.099   1.145   1.188   1.151   1.098   1.101   1.064   1.043   1.060   1.053   1.040   1.036   1.001   0.975   0.983   0.998   1.007
   115.60    1.063   1.094   1.082   1.072   1.130   1.127   1.085   1.096   1.107   1.118   1.112   1.098   1.064   1.112   1.098   1.148   1.163   1.117   1.119   1.110   1.072   1.098   1.093   1.064   1.007   1.006   1.022   1.010   1.027   1.011   1.005
   110.93    1.089   1.048   1.101   1.101   1.118   1.093   1.121   1.113   1.137   1.144   1.155   1.120   1.109   1.127   1.113   1.122   1.115   1.085   1.085   1.052   1.058   1.038   1.038   1.098   1.074   1.039   1.060   1.039   1.014   1.020   1.043
   106.27    1.060   1.088   1.095   1.096   1.088   1.095   1.117   1.110   1.124   1.143   1.144   1.133   1.129   1.151   1.160   1.157   1.133   1.129   1.070   1.046   1.056   1.036   1.034   1.031   1.083   1.085   1.070   1.025   1.010   1.012   1.011
   101.60    1.104   1.091   1.095   1.104   1.101   1.071   1.084   1.076   1.132   1.116   1.139   1.096   1.098   1.114   1.140   1.142   1.132   1.137   1.106   1.094   1.038   1.017   1.045   1.058   1.061   1.085   1.072   1.012   0.989   1.007   1.017
    96.93    1.090   1.121   1.080   1.104   1.113   1.087   1.078   1.112   1.113   1.103   1.093   1.124   1.100   1.118   1.115   1.146   1.149   1.134   1.088   1.075   1.049   1.032   1.048   1.073   1.052   1.064   1.060   1.023   0.994   1.016   1.024
    92.27    1.098   1.075   1.095   1.080   1.120   1.066   1.074   1.070   1.117   1.071   1.101   1.132   1.101   1.121   1.130   1.112   1.116   1.142   1.103   1.083   1.060   1.058   1.061   1.109   1.098   1.053   1.019   1.006   1.007   1.016   1.016
    87.60    1.110   1.073   1.059   1.073   1.079   1.088   1.112   1.104   1.085   1.090   1.071   1.096   1.065   1.112   1.129   1.061   1.081   1.087   1.056   1.067   1.056   1.096   1.087   1.079   1.039   1.015   0.986   0.993   0.988   1.013   1.058
    82.93    1.087   1.067   1.069   1.070   1.090   1.108   1.126   1.085   1.088   1.073   1.026   1.052   1.046   1.111   1.089   1.047   1.063   1.017   1.045   1.055   1.058   1.088   1.114   1.064   1.051   1.014   0.991   1.003   0.994   1.015   1.039
    78.27    1.052   1.099   1.081   1.092   1.099   1.128   1.115   1.100   1.091   1.084   1.059   1.039   1.063   1.087   1.101   1.053   1.043   1.038   1.040   1.039   1.061   1.075   1.093   1.075   1.087   1.017   1.015   1.004   0.981   0.999   1.046
    73.60    1.068   1.079   1.125   1.093   1.095   1.112   1.077   1.098   1.092   1.078   1.044   1.014   1.054   1.080   1.069   1.072   1.058   1.064   1.031   1.045   1.055   1.060   1.088   1.033   1.048   1.030   1.011   0.993   1.003   1.017   1.018
    68.93    1.110   1.108   1.094   1.084   1.090   1.076   1.088   1.093   1.057   1.054   1.044   1.026   1.044   1.059   1.053   1.063   1.038   1.028   1.046   1.033   1.073   1.072   1.078   1.037   1.039   1.040   1.018   1.019   1.005   0.989   1.036
    64.27    1.095   1.118   1.103   1.086   1.087   1.085   1.091   1.115   1.121   1.061   1.041   1.040   1.057   1.086   1.079   1.061   1.033   1.064   1.061   1.060   1.059   1.090   1.088   1.073   1.079   1.034   1.068   1.028   1.035   1.037   1.023
    59.60    1.097   1.079   1.103   1.097   1.107   1.102   1.103   1.099   1.087   1.037   1.007   1.052   1.086   1.094   1.074   1.068   1.065   1.054   1.045   1.057   1.099   1.091   1.088   1.088   1.089   1.055   1.054   1.059   1.050   1.012   1.039
    54.93    1.091   1.050   1.096   1.056   1.089   1.098   1.090   1.083   1.061   1.051   1.035   1.044   1.071   1.052   1.081   1.079   1.080   1.056   1.049   1.080   1.108   1.128   1.098   1.099   1.046   1.051   1.063   1.031   1.019   1.028   1.056
    50.27    1.102   1.072   1.046   1.046   1.044   1.053   1.066   1.087   1.075   1.068   1.030   1.055   1.050   1.058   1.061   1.095   1.109   1.079   1.076   1.084   1.064   1.079   1.089   1.045   1.060   1.047   1.030   1.049   1.058   1.069   0.976
    45.60    1.049   1.050   1.056   1.055   1.034   1.044   1.019   1.041   1.040   1.049   1.069   1.049   1.035   1.028   1.035   1.047   1.088   1.110   1.109   1.095   1.065   1.045   1.046   1.053   1.040   1.057   1.056   1.036   1.025   1.060   1.055
    40.93    1.058   1.040   1.061   1.056   1.058   1.076   1.053   1.056   1.042   1.076   1.065   1.089   1.053   1.021   1.028   1.050   1.088   1.096   1.074   1.075   1.049   1.076   1.051   1.037   1.050   1.029   1.055   1.050   1.049   1.026   1.054
    36.27    1.052   1.072   1.058   1.066   1.094   1.067   1.052   1.072   1.072   1.059   1.083   1.075   1.065   1.048   1.078   1.073   1.068   1.074   1.073   1.048   1.062   1.051   1.042   1.055   1.038   1.027   1.070   1.026   1.007   1.027   1.021
    31.60    1.036   1.021   1.061   1.069   1.092   1.068   1.052   1.042   1.054   1.061   1.054   1.083   1.077   1.066   1.055   1.052   1.048   1.082   1.038   1.072   1.078   1.055   1.056   1.061   1.047   1.039   1.037   1.029   1.079   1.029   1.025
    26.93    1.046   1.053   1.069   1.050   1.052   1.063   1.067   1.060   1.068   1.052   1.063   1.084   1.071   1.046   1.049   1.053   1.058   1.033   1.051   1.059   1.066   1.069   1.059   1.033   1.053   1.034   1.039   1.064   1.075   1.031   1.033
    22.27    1.049   1.039   1.051   1.069   1.043   1.038   1.052   1.048   1.070   1.066   1.044   1.063   1.062   1.069   1.046   1.062   1.039   1.035   1.049   1.078   1.054   1.041   1.041   1.051   1.021   1.035   1.038   1.062   1.086   1.023   1.045
    17.60    1.041   1.032   1.046   1.036   1.042   1.035   1.044   1.040   1.047   1.055   1.048   1.060   1.049   1.045   1.046   1.046   1.048   1.049   1.048   1.029   1.034   1.039   1.024   1.037   1.056   1.053   1.031   1.054   1.060   1.017   1.020

   Mean standard deviation across all grid points:
      u component:    1.857 m/s
      v component:    1.266 m/s
      w component:    1.070 m/s


U-component (X) statistics from the hub grid point:

   Mean =  15.9383 m/s
   TI   =  12.4046 %

Nyquist frequency of turbulent wind field =        10.000 Hz


Processing complete.  323.06 CPU seconds used.
