
This summary file was generated by TurbSim (v1.06.00, 21-Sep-2012) on 05-Aug-2020 at 12:37:15.


Runtime Options:

   2318573  Random seed #1
    RANLUX  Type of random number generator
         F  Output binary HH turbulence parameters?
         F  Output formatted turbulence parameters?
         F  Output AeroDyn HH files?
         T  Output AeroDyn FF files?
         F  Output BLADED FF files?
         T  Output tower data?
         F  Output formatted FF files?
         F  Output coherent turbulence time step file?
         T  Clockwise rotation when looking downwind?
 0 -  NONE  IEC turbulence models scaled to exact specified standard deviation


Turbine/Model Specifications:

        31  Vertical grid-point matrix dimension
        31  Horizontal grid-point matrix dimension
     0.050  Time step [seconds]
   600.000  Analysis time [seconds]
   600.000  Usable output time [seconds]
    87.600  Hub height [m]
   140.000  Grid height [m]
   140.000  Grid width [m]
     0.000  Vertical flow angle [degrees]
     0.000  Horizontal flow angle [degrees]


Meteorological Boundary Conditions:

    SMOOTH  RISO Smooth Terrain spectral model
       N/A  IEC standard
       N/A  IEC turbulence characteristic
       N/A  IEC turbulence type
       N/A  IEC Extreme Turbulence Model (ETM) "c" parameter [m/s]
       IEC  Wind profile type
    90.000  Reference height [m]
     8.000  Reference wind speed [m/s]
       N/A  Jet height [m]
     0.143  Power law exponent
     0.010  Surface roughness length [m]


Non-IEC Meteorological Boundary Conditions:

    45.000  Site latitude [degrees]
     0.050  Gradient Richardson number
     0.339  Friction or shear velocity [m/s]
       N/A  Mixing layer depth [m]
    -0.115  Mean hub u'w' Reynolds stress
       N/A  Mean hub u'v' Reynolds stress
       N/A  Mean hub v'w' Reynolds stress
(    7.969,  0.00    )  u-component coherence parameters
(    5.977,  0.00    )  v-component coherence parameters
(    5.977,  0.00    )  w-component coherence parameters
     0.000  Coherence exponent


You have requested that the following file(s) be generated:

   unsteady_10min_multi.bts (AeroDyn/TurbSim full-field wind file)


Turbulence Simulation Scaling Parameter Summary:

   Turbulence model used                            =  RISO Smooth Terrain
   Gradient Richardson number                       =    0.050
   Monin-Obukhov (M-O) z/L parameter                =    0.067
   Monin-Obukhov (M-O) length scale                 = 1314.000 m
   Mean wind speed at hub height                    =    7.969 m/s

   Wind profile type                                =  Power law on rotor disk, logarithmic elsewhere
   Power law exponent                               =    0.143
   Mean shear across rotor disk                     =    0.015 (m/s)/m
   Assumed rotor diameter                           =  140.000 m
   Surface roughness length                         =    0.010 m

   Number of time steps in the FFT                  =    12376
   Number of time steps output                      =    12352


Mean Flow Angles:

   Vertical   =   0.0 degrees
   Horizontal =   0.0 degrees

Mean Wind Speed Profile:

   Height    Wind Speed   Horizontal Angle  U-comp (X)   V-comp (Y)   W-comp (Z)
     (m)        (m/s)         (degrees)       (m/s)        (m/s)        (m/s)   
   ------    ----------   ----------------  ----------   ----------   ----------
    157.6        8.48            0.00          8.48         0.00         0.00
    152.9        8.63            0.00          8.63         0.00         0.00
    148.3        8.59            0.00          8.59         0.00         0.00
    143.6        8.55            0.00          8.55         0.00         0.00
    138.9        8.51            0.00          8.51         0.00         0.00
    134.3        8.47            0.00          8.47         0.00         0.00
    129.6        8.43            0.00          8.43         0.00         0.00
    124.9        8.38            0.00          8.38         0.00         0.00
    120.3        8.34            0.00          8.34         0.00         0.00
    115.6        8.29            0.00          8.29         0.00         0.00
    110.9        8.24            0.00          8.24         0.00         0.00
    106.3        8.19            0.00          8.19         0.00         0.00
    101.6        8.14            0.00          8.14         0.00         0.00
     96.9        8.09            0.00          8.09         0.00         0.00
     92.3        8.03            0.00          8.03         0.00         0.00
     87.6        7.97            0.00          7.97         0.00         0.00
     82.9        7.91            0.00          7.91         0.00         0.00
     78.3        7.84            0.00          7.84         0.00         0.00
     73.6        7.77            0.00          7.77         0.00         0.00
     68.9        7.70            0.00          7.70         0.00         0.00
     64.3        7.62            0.00          7.62         0.00         0.00
     59.6        7.54            0.00          7.54         0.00         0.00
     54.9        7.45            0.00          7.45         0.00         0.00
     50.3        7.36            0.00          7.36         0.00         0.00
     45.6        7.26            0.00          7.26         0.00         0.00
     40.9        7.15            0.00          7.15         0.00         0.00
     36.3        7.02            0.00          7.02         0.00         0.00
     31.6        6.89            0.00          6.89         0.00         0.00
     26.9        6.73            0.00          6.73         0.00         0.00
     22.3        6.55            0.00          6.55         0.00         0.00
     17.6        6.33            0.00          6.33         0.00         0.00
     12.9        6.29            0.00          6.29         0.00         0.00
      8.3        5.90            0.00          5.90         0.00         0.00
      3.6        5.17            0.00          5.17         0.00         0.00


Harvested Random Seeds after Generation of the Random Numbers:

    166280842 K1
            0 K2


Scaling statistics from the hub grid point:

   Cross-Component  Scaling Factor
   ---------------  --------------
   u'w'               -0.25518E+00
   u'v'                0.00000E+00
   v'w'                0.00000E+00


Hub-Height Simulated Turbulence Statistical Summary:

   Type of Wind        Min (m/s)   Mean (m/s)    Max (m/s)  Sigma (m/s)       TI (%)
   ----------------    ---------   ----------    ---------  -----------       ------
   Longitudinal (u)         5.62         7.97        11.07        0.813       10.197
   Lateral (v)             -2.20         0.00         2.33        0.719        9.017
   Vertical (w)            -2.05         0.00         1.98        0.576        7.230
   U component              5.62         7.97        11.07        0.813       10.197
   V component             -2.20         0.00         2.33        0.719        9.017
   W component             -2.05         0.00         1.98        0.576        7.230
   Horizontal (U&V)         5.63         8.00        11.07        0.808       10.093
   Total                    5.66         8.02        11.07        0.805       10.029

                       Min Reynolds     Mean Reynolds    Max Reynolds    Correlation
   Product             Stress (m/s)^2   Stress (m/s)^2   Stress (m/s)^2  Coefficient
   ----------------    --------------   --------------   --------------  -----------
   u'w'                     -5.288            -0.115             2.160        -0.246
   u'v'                     -3.641            -0.080             2.985        -0.137
   v'w'                     -1.508             0.032             2.567         0.077


   Friction Velocity (Ustar)  =      0.339 m/s
   Maximum Instantaneous TKE  =      5.847 (m/s)^2
   Maximum Instantaneous CTKE =      2.890 (m/s)^2


Grid Point Variance Summary:

   Y-coord  -70.00  -65.33  -60.67  -56.00  -51.33  -46.67  -42.00  -37.33  -32.67  -28.00  -23.33  -18.67  -14.00   -9.33   -4.67    0.00    4.67    9.33   14.00   18.67   23.33   28.00   32.67   37.33   42.00   46.67   51.33   56.00   60.67   65.33   70.00

   Height   Standard deviation at grid points for the u component:
   157.60    0.791   0.783   0.776   0.766   0.762   0.784   0.800   0.795   0.726   0.715   0.746   0.804   0.781   0.800   0.791   0.746   0.743   0.723   0.692   0.658   0.717   0.717   0.709   0.669   0.644   0.618   0.632   0.606   0.623   0.631   0.624
   152.93    0.836   0.800   0.811   0.804   0.837   0.826   0.788   0.793   0.756   0.756   0.782   0.755   0.800   0.803   0.783   0.774   0.768   0.761   0.706   0.689   0.690   0.714   0.708   0.718   0.691   0.673   0.639   0.609   0.663   0.648   0.644
   148.27    0.833   0.809   0.811   0.837   0.852   0.825   0.843   0.824   0.776   0.789   0.762   0.734   0.738   0.722   0.772   0.786   0.762   0.735   0.719   0.707   0.731   0.726   0.721   0.701   0.684   0.704   0.664   0.665   0.633   0.653   0.681
   143.60    0.825   0.809   0.839   0.871   0.892   0.864   0.833   0.766   0.805   0.758   0.721   0.726   0.736   0.736   0.771   0.749   0.731   0.742   0.699   0.741   0.751   0.738   0.723   0.729   0.703   0.715   0.706   0.707   0.628   0.597   0.651
   138.93    0.779   0.778   0.835   0.889   0.887   0.841   0.821   0.765   0.719   0.789   0.754   0.741   0.745   0.744   0.736   0.769   0.739   0.749   0.757   0.756   0.775   0.747   0.716   0.735   0.737   0.687   0.720   0.752   0.671   0.675   0.663
   134.27    0.834   0.857   0.869   0.864   0.900   0.877   0.816   0.757   0.738   0.738   0.743   0.720   0.719   0.734   0.694   0.731   0.740   0.795   0.762   0.750   0.739   0.798   0.739   0.745   0.730   0.734   0.713   0.741   0.757   0.686   0.707
   129.60    0.851   0.843   0.859   0.888   0.911   0.871   0.816   0.755   0.784   0.752   0.740   0.713   0.727   0.746   0.719   0.736   0.787   0.757   0.794   0.782   0.784   0.795   0.772   0.771   0.765   0.722   0.761   0.762   0.740   0.715   0.733
   124.93    0.868   0.869   0.836   0.863   0.889   0.839   0.856   0.793   0.823   0.785   0.723   0.699   0.713   0.693   0.719   0.743   0.751   0.734   0.777   0.790   0.771   0.801   0.783   0.799   0.766   0.767   0.765   0.779   0.764   0.764   0.756
   120.27    0.848   0.844   0.805   0.809   0.803   0.793   0.788   0.808   0.835   0.808   0.797   0.776   0.746   0.706   0.719   0.739   0.762   0.804   0.780   0.757   0.724   0.761   0.766   0.791   0.761   0.768   0.777   0.775   0.785   0.809   0.793
   115.60    0.819   0.828   0.817   0.798   0.783   0.818   0.777   0.776   0.833   0.781   0.776   0.779   0.760   0.754   0.756   0.763   0.797   0.817   0.782   0.754   0.721   0.711   0.756   0.816   0.780   0.821   0.812   0.813   0.782   0.764   0.766
   110.93    0.787   0.797   0.754   0.775   0.796   0.849   0.798   0.792   0.817   0.789   0.777   0.802   0.798   0.781   0.748   0.781   0.814   0.795   0.789   0.782   0.735   0.746   0.801   0.868   0.811   0.858   0.867   0.829   0.797   0.784   0.787
   106.27    0.764   0.749   0.724   0.752   0.805   0.786   0.820   0.802   0.782   0.774   0.805   0.816   0.812   0.799   0.780   0.782   0.786   0.803   0.821   0.844   0.758   0.768   0.812   0.818   0.868   0.859   0.884   0.860   0.803   0.784   0.835
   101.60    0.749   0.760   0.742   0.759   0.780   0.793   0.790   0.786   0.798   0.773   0.746   0.802   0.824   0.776   0.798   0.798   0.789   0.801   0.838   0.887   0.796   0.779   0.790   0.827   0.890   0.840   0.898   0.836   0.802   0.777   0.863
    96.93    0.764   0.739   0.747   0.747   0.821   0.785   0.793   0.762   0.802   0.763   0.745   0.762   0.804   0.822   0.786   0.778   0.810   0.817   0.839   0.858   0.841   0.796   0.827   0.833   0.814   0.849   0.895   0.852   0.861   0.863   0.883
    92.27    0.760   0.768   0.726   0.804   0.797   0.728   0.765   0.805   0.843   0.821   0.817   0.784   0.767   0.838   0.812   0.791   0.783   0.774   0.796   0.835   0.840   0.808   0.833   0.844   0.830   0.834   0.855   0.910   0.894   0.903   0.833
    87.60    0.766   0.746   0.710   0.784   0.805   0.750   0.743   0.817   0.807   0.813   0.769   0.828   0.786   0.803   0.826   0.813   0.808   0.819   0.788   0.813   0.827   0.819   0.792   0.827   0.868   0.848   0.881   0.904   0.895   0.872   0.829
    82.93    0.802   0.759   0.752   0.777   0.760   0.793   0.776   0.808   0.817   0.783   0.765   0.834   0.835   0.831   0.833   0.785   0.775   0.823   0.774   0.762   0.788   0.769   0.791   0.842   0.897   0.871   0.879   0.923   0.863   0.875   0.843
    78.27    0.761   0.761   0.750   0.767   0.786   0.804   0.814   0.808   0.857   0.849   0.851   0.876   0.858   0.798   0.811   0.838   0.830   0.813   0.751   0.788   0.781   0.800   0.820   0.829   0.868   0.817   0.868   0.917   0.902   0.831   0.881
    73.60    0.744   0.800   0.752   0.738   0.806   0.820   0.848   0.825   0.886   0.875   0.891   0.915   0.858   0.828   0.832   0.841   0.825   0.794   0.763   0.788   0.770   0.810   0.868   0.864   0.853   0.868   0.829   0.891   0.906   0.917   0.878
    68.93    0.798   0.794   0.798   0.769   0.831   0.845   0.848   0.813   0.868   0.893   0.884   0.902   0.855   0.876   0.837   0.813   0.820   0.790   0.790   0.795   0.806   0.845   0.860   0.875   0.901   0.894   0.903   0.891   0.897   0.871   0.885
    64.27    0.821   0.788   0.800   0.762   0.838   0.871   0.883   0.857   0.814   0.861   0.875   0.863   0.843   0.857   0.819   0.832   0.802   0.763   0.742   0.825   0.856   0.838   0.882   0.876   0.871   0.848   0.916   0.918   0.931   0.856   0.852
    59.60    0.825   0.805   0.823   0.810   0.836   0.875   0.907   0.884   0.860   0.878   0.863   0.885   0.867   0.838   0.830   0.855   0.786   0.785   0.765   0.835   0.889   0.892   0.879   0.850   0.872   0.894   0.968   0.945   0.922   0.853   0.824
    54.93    0.821   0.844   0.825   0.775   0.818   0.871   0.908   0.853   0.866   0.876   0.893   0.918   0.892   0.817   0.842   0.858   0.790   0.802   0.805   0.815   0.842   0.857   0.872   0.867   0.908   0.929   0.929   0.953   0.923   0.886   0.858
    50.27    0.774   0.811   0.819   0.802   0.791   0.852   0.891   0.865   0.907   0.890   0.878   0.923   0.894   0.905   0.862   0.871   0.828   0.794   0.787   0.795   0.843   0.848   0.875   0.926   0.971   0.972   0.904   0.911   0.924   0.863   0.848
    45.60    0.775   0.739   0.800   0.833   0.865   0.867   0.872   0.855   0.887   0.903   0.890   0.877   0.873   0.905   0.873   0.864   0.861   0.860   0.866   0.841   0.906   0.906   0.901   0.898   0.927   0.936   0.925   0.907   0.893   0.894   0.860
    40.93    0.755   0.783   0.797   0.808   0.831   0.853   0.833   0.878   0.917   0.871   0.849   0.853   0.870   0.892   0.898   0.871   0.853   0.874   0.885   0.871   0.900   0.926   0.925   0.890   0.908   0.932   0.910   0.903   0.890   0.839   0.859
    36.27    0.750   0.819   0.852   0.819   0.797   0.798   0.824   0.877   0.895   0.869   0.857   0.877   0.885   0.900   0.929   0.890   0.898   0.860   0.911   0.897   0.899   0.963   0.924   0.940   0.902   0.906   0.875   0.872   0.824   0.868   0.875
    31.60    0.792   0.791   0.806   0.833   0.840   0.882   0.844   0.889   0.903   0.865   0.886   0.910   0.869   0.918   0.897   0.851   0.867   0.892   0.880   0.920   0.949   0.967   0.943   0.915   0.905   0.891   0.856   0.840   0.837   0.868   0.851
    26.93    0.822   0.842   0.833   0.897   0.852   0.902   0.858   0.870   0.885   0.868   0.859   0.901   0.877   0.897   0.886   0.863   0.872   0.915   0.916   0.924   0.911   0.930   0.934   0.922   0.922   0.896   0.902   0.852   0.907   0.903   0.925
    22.27    0.831   0.875   0.927   0.906   0.957   0.927   0.905   0.895   0.920   0.886   0.837   0.870   0.884   0.886   0.858   0.875   0.895   0.916   0.871   0.865   0.861   0.918   0.927   0.889   0.887   0.886   0.905   0.851   0.914   0.895   0.903
    17.60    0.874   0.881   0.915   0.926   0.908   0.931   0.934   0.923   0.914   0.897   0.918   0.880   0.906   0.856   0.878   0.924   0.919   0.933   0.882   0.843   0.854   0.869   0.866   0.864   0.863   0.844   0.857   0.849   0.880   0.862   0.861

   Height   Standard deviation at grid points for the v component:
   157.60    0.773   0.772   0.753   0.747   0.779   0.825   0.820   0.815   0.804   0.772   0.782   0.793   0.778   0.763   0.720   0.669   0.635   0.624   0.621   0.599   0.612   0.631   0.650   0.669   0.687   0.686   0.662   0.604   0.637   0.694   0.706
   152.93    0.766   0.791   0.756   0.762   0.801   0.813   0.820   0.798   0.796   0.795   0.793   0.779   0.786   0.745   0.711   0.674   0.630   0.630   0.635   0.621   0.630   0.649   0.657   0.672   0.685   0.661   0.628   0.637   0.652   0.712   0.720
   148.27    0.800   0.825   0.764   0.783   0.807   0.828   0.813   0.804   0.808   0.798   0.803   0.777   0.777   0.750   0.707   0.670   0.640   0.657   0.667   0.642   0.636   0.644   0.679   0.681   0.679   0.638   0.642   0.651   0.682   0.687   0.695
   143.60    0.786   0.803   0.789   0.793   0.832   0.837   0.812   0.808   0.822   0.822   0.786   0.753   0.745   0.733   0.694   0.662   0.676   0.652   0.676   0.687   0.665   0.665   0.677   0.672   0.683   0.638   0.642   0.666   0.669   0.687   0.711
   138.93    0.769   0.786   0.792   0.802   0.817   0.838   0.817   0.807   0.801   0.803   0.786   0.766   0.743   0.694   0.683   0.659   0.689   0.669   0.665   0.681   0.654   0.643   0.660   0.673   0.679   0.646   0.648   0.648   0.659   0.679   0.696
   134.27    0.792   0.785   0.773   0.768   0.801   0.821   0.816   0.807   0.803   0.781   0.806   0.795   0.724   0.710   0.667   0.665   0.677   0.657   0.668   0.663   0.676   0.654   0.672   0.710   0.681   0.670   0.676   0.650   0.654   0.682   0.687
   129.60    0.785   0.780   0.772   0.787   0.806   0.826   0.837   0.849   0.835   0.786   0.818   0.784   0.716   0.696   0.672   0.649   0.666   0.667   0.663   0.663   0.703   0.694   0.701   0.690   0.691   0.687   0.682   0.695   0.682   0.680   0.692
   124.93    0.797   0.775   0.776   0.783   0.796   0.804   0.807   0.815   0.826   0.811   0.821   0.775   0.718   0.702   0.705   0.684   0.661   0.647   0.649   0.651   0.702   0.715   0.724   0.695   0.696   0.698   0.676   0.680   0.720   0.715   0.703
   120.27    0.777   0.796   0.808   0.808   0.805   0.802   0.790   0.791   0.797   0.814   0.801   0.798   0.733   0.717   0.709   0.676   0.686   0.643   0.672   0.685   0.703   0.719   0.714   0.726   0.695   0.700   0.716   0.727   0.720   0.714   0.714
   115.60    0.755   0.784   0.787   0.810   0.784   0.785   0.781   0.793   0.784   0.800   0.825   0.827   0.757   0.726   0.703   0.691   0.666   0.668   0.653   0.662   0.719   0.737   0.753   0.715   0.703   0.703   0.730   0.733   0.744   0.721   0.697
   110.93    0.786   0.772   0.773   0.806   0.778   0.766   0.778   0.767   0.794   0.798   0.815   0.805   0.767   0.733   0.696   0.660   0.666   0.657   0.675   0.682   0.724   0.755   0.750   0.742   0.729   0.723   0.732   0.746   0.736   0.730   0.738
   106.27    0.762   0.765   0.797   0.782   0.770   0.769   0.752   0.758   0.782   0.798   0.778   0.775   0.758   0.738   0.731   0.707   0.661   0.658   0.675   0.706   0.732   0.761   0.780   0.772   0.749   0.771   0.735   0.738   0.674   0.725   0.727
   101.60    0.760   0.787   0.819   0.799   0.770   0.736   0.748   0.764   0.781   0.800   0.811   0.788   0.806   0.774   0.724   0.728   0.685   0.662   0.697   0.689   0.714   0.732   0.759   0.768   0.755   0.728   0.741   0.747   0.733   0.730   0.733
    96.93    0.777   0.802   0.796   0.771   0.754   0.752   0.748   0.764   0.784   0.822   0.809   0.826   0.797   0.794   0.755   0.729   0.716   0.689   0.692   0.682   0.696   0.726   0.729   0.714   0.700   0.740   0.740   0.751   0.763   0.742   0.729
    92.27    0.748   0.768   0.768   0.767   0.769   0.761   0.777   0.775   0.770   0.785   0.792   0.796   0.759   0.785   0.750   0.723   0.690   0.688   0.705   0.684   0.695   0.742   0.718   0.717   0.709   0.698   0.723   0.731   0.736   0.745   0.759
    87.60    0.730   0.742   0.761   0.754   0.775   0.781   0.780   0.780   0.781   0.789   0.781   0.773   0.750   0.742   0.751   0.719   0.695   0.669   0.674   0.707   0.723   0.736   0.688   0.685   0.697   0.706   0.738   0.762   0.763   0.758   0.760
    82.93    0.764   0.764   0.774   0.767   0.766   0.786   0.791   0.793   0.780   0.768   0.777   0.748   0.715   0.727   0.715   0.714   0.669   0.661   0.667   0.700   0.731   0.718   0.694   0.693   0.708   0.721   0.739   0.761   0.749   0.786   0.761
    78.27    0.757   0.760   0.780   0.745   0.740   0.769   0.808   0.798   0.779   0.761   0.742   0.756   0.699   0.680   0.653   0.679   0.643   0.667   0.662   0.700   0.733   0.720   0.696   0.702   0.725   0.718   0.744   0.729   0.744   0.771   0.788
    73.60    0.739   0.767   0.749   0.753   0.772   0.760   0.769   0.777   0.754   0.730   0.743   0.740   0.698   0.652   0.659   0.648   0.659   0.659   0.677   0.708   0.712   0.706   0.716   0.705   0.708   0.716   0.732   0.760   0.738   0.758   0.757
    68.93    0.734   0.733   0.727   0.760   0.754   0.714   0.725   0.720   0.733   0.739   0.731   0.716   0.680   0.660   0.663   0.648   0.663   0.670   0.667   0.693   0.720   0.740   0.728   0.712   0.715   0.728   0.770   0.772   0.746   0.759   0.757
    64.27    0.740   0.754   0.731   0.741   0.735   0.741   0.701   0.710   0.714   0.694   0.713   0.695   0.652   0.645   0.644   0.658   0.661   0.688   0.694   0.701   0.704   0.725   0.715   0.711   0.714   0.708   0.735   0.760   0.763   0.750   0.763
    59.60    0.715   0.732   0.728   0.749   0.736   0.725   0.718   0.692   0.702   0.684   0.666   0.667   0.664   0.662   0.648   0.649   0.660   0.672   0.691   0.707   0.738   0.720   0.695   0.689   0.670   0.688   0.713   0.742   0.755   0.766   0.759
    54.93    0.713   0.724   0.697   0.729   0.737   0.715   0.711   0.709   0.679   0.649   0.641   0.642   0.640   0.661   0.648   0.634   0.656   0.680   0.676   0.677   0.698   0.731   0.721   0.718   0.709   0.705   0.723   0.730   0.746   0.744   0.747
    50.27    0.713   0.737   0.751   0.724   0.724   0.707   0.742   0.694   0.671   0.665   0.663   0.668   0.662   0.684   0.645   0.628   0.639   0.652   0.659   0.674   0.702   0.681   0.682   0.702   0.710   0.741   0.721   0.735   0.753   0.734   0.745
    45.60    0.698   0.737   0.740   0.728   0.703   0.713   0.712   0.669   0.665   0.678   0.689   0.648   0.669   0.674   0.658   0.655   0.661   0.657   0.651   0.662   0.659   0.668   0.656   0.677   0.708   0.731   0.713   0.738   0.744   0.728   0.726
    40.93    0.709   0.690   0.711   0.718   0.718   0.746   0.705   0.681   0.668   0.664   0.656   0.669   0.678   0.674   0.662   0.671   0.657   0.667   0.660   0.664   0.652   0.664   0.681   0.676   0.699   0.723   0.721   0.713   0.711   0.723   0.721
    36.27    0.717   0.701   0.705   0.694   0.717   0.748   0.700   0.669   0.668   0.664   0.663   0.654   0.688   0.670   0.686   0.685   0.679   0.684   0.678   0.646   0.641   0.628   0.652   0.674   0.688   0.693   0.710   0.693   0.704   0.712   0.699
    31.60    0.689   0.685   0.701   0.697   0.710   0.713   0.712   0.665   0.658   0.644   0.653   0.658   0.694   0.673   0.664   0.677   0.666   0.666   0.675   0.656   0.643   0.653   0.642   0.670   0.655   0.693   0.688   0.714   0.695   0.693   0.682
    26.93    0.671   0.701   0.702   0.688   0.703   0.689   0.682   0.658   0.638   0.639   0.645   0.646   0.675   0.668   0.678   0.688   0.675   0.669   0.643   0.665   0.671   0.664   0.664   0.680   0.666   0.666   0.697   0.715   0.718   0.668   0.682
    22.27    0.677   0.681   0.670   0.684   0.685   0.686   0.679   0.653   0.627   0.639   0.635   0.677   0.660   0.664   0.684   0.684   0.678   0.690   0.667   0.670   0.670   0.676   0.673   0.668   0.682   0.699   0.703   0.711   0.687   0.676   0.693
    17.60    0.668   0.687   0.682   0.688   0.661   0.674   0.663   0.620   0.642   0.627   0.662   0.654   0.672   0.664   0.679   0.684   0.666   0.675   0.654   0.654   0.683   0.703   0.677   0.683   0.686   0.694   0.688   0.674   0.696   0.673   0.705

   Height   Standard deviation at grid points for the w component:
   157.60    0.545   0.529   0.524   0.513   0.532   0.536   0.544   0.539   0.536   0.533   0.533   0.543   0.538   0.538   0.511   0.498   0.509   0.508   0.507   0.494   0.518   0.511   0.494   0.487   0.474   0.493   0.491   0.477   0.474   0.469   0.466
   152.93    0.536   0.518   0.553   0.543   0.544   0.531   0.538   0.526   0.528   0.545   0.556   0.562   0.534   0.543   0.510   0.517   0.519   0.502   0.510   0.522   0.501   0.486   0.498   0.502   0.480   0.487   0.481   0.473   0.490   0.475   0.471
   148.27    0.533   0.525   0.529   0.559   0.549   0.556   0.538   0.544   0.550   0.565   0.576   0.563   0.542   0.523   0.535   0.515   0.514   0.507   0.505   0.502   0.504   0.472   0.470   0.482   0.473   0.475   0.473   0.488   0.491   0.467   0.467
   143.60    0.522   0.521   0.560   0.545   0.559   0.563   0.531   0.552   0.544   0.563   0.569   0.544   0.538   0.532   0.531   0.523   0.524   0.531   0.525   0.507   0.488   0.479   0.484   0.461   0.453   0.471   0.488   0.485   0.481   0.491   0.499
   138.93    0.542   0.530   0.550   0.561   0.551   0.571   0.571   0.553   0.536   0.522   0.536   0.530   0.532   0.542   0.557   0.536   0.531   0.504   0.517   0.484   0.487   0.484   0.474   0.459   0.459   0.471   0.473   0.479   0.485   0.491   0.482
   134.27    0.567   0.560   0.550   0.580   0.575   0.573   0.575   0.554   0.518   0.512   0.522   0.533   0.560   0.558   0.542   0.549   0.549   0.530   0.539   0.487   0.488   0.486   0.481   0.490   0.472   0.478   0.469   0.479   0.498   0.502   0.496
   129.60    0.580   0.565   0.566   0.588   0.589   0.578   0.575   0.559   0.533   0.537   0.521   0.528   0.559   0.576   0.546   0.529   0.541   0.521   0.514   0.503   0.497   0.499   0.491   0.491   0.487   0.464   0.467   0.487   0.492   0.492   0.487
   124.93    0.572   0.571   0.571   0.583   0.600   0.583   0.568   0.567   0.543   0.561   0.548   0.528   0.546   0.541   0.539   0.529   0.534   0.519   0.522   0.516   0.528   0.514   0.519   0.491   0.489   0.502   0.475   0.472   0.481   0.480   0.492
   120.27    0.578   0.577   0.547   0.591   0.591   0.588   0.535   0.551   0.554   0.547   0.557   0.537   0.529   0.531   0.541   0.537   0.540   0.531   0.540   0.539   0.531   0.527   0.509   0.512   0.509   0.513   0.495   0.496   0.483   0.491   0.491
   115.60    0.579   0.558   0.554   0.565   0.545   0.542   0.548   0.546   0.546   0.533   0.544   0.540   0.522   0.542   0.550   0.528   0.542   0.537   0.540   0.539   0.537   0.541   0.542   0.533   0.514   0.513   0.504   0.524   0.531   0.526   0.503
   110.93    0.576   0.580   0.567   0.550   0.544   0.546   0.543   0.548   0.527   0.541   0.531   0.537   0.557   0.570   0.551   0.543   0.534   0.534   0.526   0.539   0.541   0.552   0.534   0.529   0.535   0.530   0.524   0.499   0.520   0.507   0.505
   106.27    0.578   0.578   0.554   0.532   0.527   0.546   0.542   0.537   0.538   0.529   0.534   0.524   0.563   0.554   0.555   0.559   0.540   0.530   0.523   0.543   0.554   0.546   0.513   0.531   0.517   0.518   0.525   0.497   0.491   0.513   0.506
   101.60    0.546   0.559   0.565   0.526   0.537   0.545   0.541   0.539   0.535   0.530   0.529   0.543   0.561   0.542   0.555   0.559   0.563   0.554   0.532   0.528   0.534   0.533   0.532   0.533   0.515   0.507   0.518   0.509   0.500   0.493   0.521
    96.93    0.557   0.550   0.560   0.544   0.540   0.521   0.525   0.528   0.539   0.534   0.540   0.564   0.574   0.563   0.548   0.576   0.576   0.567   0.554   0.520   0.532   0.531   0.538   0.526   0.524   0.516   0.530   0.527   0.514   0.518   0.518
    92.27    0.546   0.530   0.547   0.563   0.558   0.537   0.520   0.522   0.543   0.549   0.547   0.577   0.581   0.583   0.574   0.568   0.577   0.576   0.557   0.545   0.533   0.511   0.525   0.530   0.522   0.506   0.506   0.522   0.503   0.498   0.510
    87.60    0.549   0.564   0.558   0.577   0.554   0.542   0.528   0.522   0.536   0.553   0.554   0.579   0.575   0.568   0.573   0.576   0.579   0.552   0.567   0.542   0.536   0.541   0.522   0.510   0.514   0.503   0.501   0.508   0.523   0.519   0.518
    82.93    0.544   0.549   0.579   0.585   0.561   0.552   0.558   0.545   0.537   0.543   0.562   0.542   0.556   0.566   0.576   0.572   0.565   0.564   0.559   0.558   0.522   0.504   0.508   0.503   0.532   0.506   0.511   0.525   0.528   0.537   0.520
    78.27    0.547   0.560   0.564   0.567   0.566   0.567   0.563   0.540   0.544   0.546   0.526   0.532   0.556   0.563   0.566   0.575   0.575   0.549   0.561   0.547   0.530   0.531   0.514   0.506   0.519   0.524   0.522   0.507   0.532   0.554   0.556
    73.60    0.550   0.534   0.549   0.559   0.567   0.580   0.577   0.536   0.550   0.534   0.521   0.535   0.541   0.539   0.554   0.552   0.573   0.550   0.536   0.513   0.538   0.525   0.515   0.497   0.492   0.501   0.516   0.506   0.549   0.543   0.543
    68.93    0.551   0.559   0.573   0.578   0.586   0.563   0.563   0.547   0.560   0.536   0.525   0.552   0.535   0.533   0.523   0.541   0.563   0.559   0.561   0.538   0.550   0.551   0.516   0.504   0.509   0.511   0.520   0.507   0.522   0.532   0.546
    64.27    0.569   0.570   0.585   0.571   0.571   0.566   0.552   0.554   0.548   0.546   0.544   0.574   0.569   0.552   0.549   0.538   0.563   0.567   0.548   0.537   0.538   0.496   0.524   0.517   0.522   0.524   0.542   0.516   0.507   0.529   0.539
    59.60    0.561   0.554   0.567   0.576   0.570   0.549   0.560   0.546   0.520   0.542   0.571   0.564   0.576   0.548   0.557   0.539   0.556   0.554   0.537   0.553   0.527   0.515   0.520   0.544   0.544   0.531   0.527   0.501   0.518   0.554   0.569
    54.93    0.571   0.569   0.574   0.574   0.577   0.555   0.551   0.519   0.521   0.563   0.555   0.566   0.572   0.547   0.541   0.548   0.556   0.531   0.551   0.549   0.539   0.518   0.528   0.522   0.539   0.540   0.538   0.527   0.538   0.550   0.565
    50.27    0.554   0.552   0.574   0.557   0.568   0.552   0.537   0.516   0.536   0.517   0.539   0.553   0.556   0.568   0.550   0.553   0.544   0.544   0.543   0.545   0.542   0.554   0.529   0.525   0.510   0.535   0.554   0.534   0.535   0.535   0.550
    45.60    0.558   0.557   0.557   0.566   0.536   0.536   0.539   0.521   0.523   0.515   0.546   0.549   0.555   0.560   0.562   0.560   0.551   0.562   0.561   0.547   0.539   0.549   0.522   0.525   0.528   0.527   0.543   0.561   0.555   0.556   0.550
    40.93    0.577   0.561   0.536   0.541   0.537   0.554   0.532   0.529   0.515   0.517   0.516   0.542   0.537   0.585   0.560   0.570   0.566   0.579   0.571   0.537   0.530   0.543   0.528   0.539   0.541   0.538   0.549   0.565   0.574   0.544   0.541
    36.27    0.561   0.536   0.571   0.540   0.548   0.544   0.538   0.527   0.530   0.529   0.535   0.553   0.566   0.549   0.559   0.562   0.571   0.560   0.559   0.559   0.545   0.548   0.538   0.553   0.552   0.559   0.545   0.572   0.555   0.560   0.555
    31.60    0.570   0.551   0.552   0.551   0.578   0.564   0.557   0.535   0.547   0.555   0.550   0.560   0.548   0.553   0.550   0.539   0.553   0.561   0.556   0.569   0.565   0.549   0.541   0.553   0.571   0.556   0.556   0.559   0.558   0.567   0.548
    26.93    0.557   0.552   0.542   0.546   0.548   0.561   0.567   0.536   0.542   0.544   0.543   0.554   0.538   0.538   0.547   0.541   0.534   0.546   0.568   0.581   0.542   0.549   0.555   0.553   0.563   0.575   0.572   0.558   0.555   0.577   0.570
    22.27    0.544   0.542   0.543   0.555   0.536   0.538   0.560   0.563   0.551   0.551   0.549   0.560   0.538   0.546   0.537   0.531   0.544   0.547   0.557   0.562   0.545   0.560   0.550   0.553   0.563   0.571   0.587   0.569   0.571   0.561   0.548
    17.60    0.552   0.554   0.545   0.538   0.541   0.555   0.558   0.560   0.571   0.558   0.565   0.546   0.552   0.546   0.536   0.552   0.526   0.550   0.564   0.552   0.552   0.553   0.565   0.567   0.572   0.572   0.568   0.568   0.563   0.538   0.547

   Mean standard deviation across all grid points:
      u component:    0.818 m/s
      v component:    0.717 m/s
      w component:    0.538 m/s


U-component (X) statistics from the hub grid point:

   Mean =   7.9691 m/s
   TI   =  10.1973 %

Nyquist frequency of turbulent wind field =        10.000 Hz


Processing complete.  353.12 CPU seconds used.
