
This summary file was generated by TurbSim (v1.06.00, 21-Sep-2012) on 15-Sep-2020 at 15:24:05.


Runtime Options:

  65432154  Random seed #1
    RANLUX  Type of random number generator
         F  Output binary HH turbulence parameters?
         F  Output formatted turbulence parameters?
         F  Output AeroDyn HH files?
         T  Output AeroDyn FF files?
         F  Output BLADED FF files?
         T  Output tower data?
         F  Output formatted FF files?
         F  Output coherent turbulence time step file?
         T  Clockwise rotation when looking downwind?
 0 -  NONE  IEC turbulence models scaled to exact specified standard deviation


Turbine/Model Specifications:

        33  Vertical grid-point matrix dimension
        33  Horizontal grid-point matrix dimension
     0.050  Time step [seconds]
   370.000  Analysis time [seconds]
   370.000  Usable output time [seconds]
    87.600  Hub height [m]
   130.000  Grid height [m]
   130.000  Grid width [m]
     0.000  Vertical flow angle [degrees]
     0.000  Horizontal flow angle [degrees]


Meteorological Boundary Conditions:

    SMOOTH  RISO Smooth Terrain spectral model
       N/A  IEC standard
       N/A  IEC turbulence characteristic
       N/A  IEC turbulence type
       N/A  IEC Extreme Turbulence Model (ETM) "c" parameter [m/s]
       IEC  Wind profile type
    87.600  Reference height [m]
    18.000  Reference wind speed [m/s]
       N/A  Jet height [m]
     0.143  Power law exponent
     0.010  Surface roughness length [m]


Non-IEC Meteorological Boundary Conditions:

    45.000  Site latitude [degrees]
     0.050  Gradient Richardson number
     0.765  Friction or shear velocity [m/s]
       N/A  Mixing layer depth [m]
    -0.585  Mean hub u'w' Reynolds stress
       N/A  Mean hub u'v' Reynolds stress
       N/A  Mean hub v'w' Reynolds stress
(   18.000,  0.00    )  u-component coherence parameters
(   13.500,  0.00    )  v-component coherence parameters
(   13.500,  0.00    )  w-component coherence parameters
     0.000  Coherence exponent


You have requested that the following file(s) be generated:

   unsteady_tmp_18.bts (AeroDyn/TurbSim full-field wind file)


Turbulence Simulation Scaling Parameter Summary:

   Turbulence model used                            =  RISO Smooth Terrain
   Gradient Richardson number                       =    0.050
   Monin-Obukhov (M-O) z/L parameter                =    0.067
   Monin-Obukhov (M-O) length scale                 = 1314.000 m
   Mean wind speed at hub height                    =   18.000 m/s

   Wind profile type                                =  Power law on rotor disk, logarithmic elsewhere
   Power law exponent                               =    0.143
   Mean shear across rotor disk                     =    0.033 (m/s)/m
   Assumed rotor diameter                           =  130.000 m
   Surface roughness length                         =    0.010 m

   Number of time steps in the FFT                  =     7560
   Number of time steps output                      =     7545


Mean Flow Angles:

   Vertical   =   0.0 degrees
   Horizontal =   0.0 degrees

Mean Wind Speed Profile:

   Height    Wind Speed   Horizontal Angle  U-comp (X)   V-comp (Y)   W-comp (Z)
     (m)        (m/s)         (degrees)       (m/s)        (m/s)        (m/s)   
   ------    ----------   ----------------  ----------   ----------   ----------
    152.6       19.10            0.00         19.10         0.00         0.00
    148.5       19.41            0.00         19.41         0.00         0.00
    144.5       19.34            0.00         19.34         0.00         0.00
    140.4       19.26            0.00         19.26         0.00         0.00
    136.4       19.18            0.00         19.18         0.00         0.00
    132.3       19.09            0.00         19.09         0.00         0.00
    128.2       19.01            0.00         19.01         0.00         0.00
    124.2       18.92            0.00         18.92         0.00         0.00
    120.1       18.83            0.00         18.83         0.00         0.00
    116.0       18.74            0.00         18.74         0.00         0.00
    112.0       18.64            0.00         18.64         0.00         0.00
    107.9       18.54            0.00         18.54         0.00         0.00
    103.9       18.44            0.00         18.44         0.00         0.00
     99.8       18.34            0.00         18.34         0.00         0.00
     95.7       18.23            0.00         18.23         0.00         0.00
     91.7       18.12            0.00         18.12         0.00         0.00
     87.6       18.00            0.00         18.00         0.00         0.00
     83.5       17.88            0.00         17.88         0.00         0.00
     79.5       17.75            0.00         17.75         0.00         0.00
     75.4       17.62            0.00         17.62         0.00         0.00
     71.4       17.48            0.00         17.48         0.00         0.00
     67.3       17.33            0.00         17.33         0.00         0.00
     63.2       17.18            0.00         17.18         0.00         0.00
     59.2       17.02            0.00         17.02         0.00         0.00
     55.1       16.85            0.00         16.85         0.00         0.00
     51.0       16.66            0.00         16.66         0.00         0.00
     47.0       16.47            0.00         16.47         0.00         0.00
     42.9       16.25            0.00         16.25         0.00         0.00
     38.9       16.02            0.00         16.02         0.00         0.00
     34.8       15.77            0.00         15.77         0.00         0.00
     30.7       15.50            0.00         15.50         0.00         0.00
     26.7       15.18            0.00         15.18         0.00         0.00
     22.6       14.83            0.00         14.83         0.00         0.00
     18.5       14.92            0.00         14.92         0.00         0.00
     14.5       14.43            0.00         14.43         0.00         0.00
     10.4       13.78            0.00         13.78         0.00         0.00
      6.4       12.80            0.00         12.80         0.00         0.00
      2.3       10.77            0.00         10.77         0.00         0.00


Harvested Random Seeds after Generation of the Random Numbers:

    115272045 K1
            0 K2


Scaling statistics from the hub grid point:

   Cross-Component  Scaling Factor
   ---------------  --------------
   u'w'               -0.99139E-01
   u'v'                0.00000E+00
   v'w'                0.00000E+00


Hub-Height Simulated Turbulence Statistical Summary:

   Type of Wind        Min (m/s)   Mean (m/s)    Max (m/s)  Sigma (m/s)       TI (%)
   ----------------    ---------   ----------    ---------  -----------       ------
   Longitudinal (u)        11.16        18.00        23.78        1.884       10.468
   Lateral (v)             -5.80         0.00         4.54        1.469        8.163
   Vertical (w)            -5.91         0.00         3.73        1.211        6.730
   U component             11.16        18.00        23.78        1.884       10.468
   V component             -5.80         0.00         4.54        1.469        8.163
   W component             -5.91         0.00         3.73        1.211        6.730
   Horizontal (U&V)        11.42        18.06        23.80        1.882       10.419
   Total                   11.56        18.10        23.85        1.879       10.383

                       Min Reynolds     Mean Reynolds    Max Reynolds    Correlation
   Product             Stress (m/s)^2   Stress (m/s)^2   Stress (m/s)^2  Coefficient
   ----------------    --------------   --------------   --------------  -----------
   u'w'                    -17.271            -0.585            10.829        -0.256
   u'v'                    -18.749            -0.293            13.149        -0.106
   v'w'                    -11.016             0.130            17.351         0.073


   Friction Velocity (Ustar)  =      0.765 m/s
   Maximum Instantaneous TKE  =     27.885 (m/s)^2
   Maximum Instantaneous CTKE =     10.858 (m/s)^2


Grid Point Variance Summary:

   Y-coord  -65.00  -60.94  -56.88  -52.81  -48.75  -44.69  -40.62  -36.56  -32.50  -28.44  -24.38  -20.31  -16.25  -12.19   -8.12   -4.06    0.00    4.06    8.12   12.19   16.25   20.31   24.38   28.44   32.50   36.56   40.62   44.69   48.75   52.81   56.88   60.94   65.00

   Height   Standard deviation at grid points for the u component:
   152.60    2.555   2.605   2.590   2.589   2.518   2.439   2.323   2.273   2.158   2.138   2.056   1.912   1.954   2.000   2.122   2.098   2.071   1.947   1.881   1.826   1.926   1.814   1.692   1.768   1.738   1.709   1.638   1.844   1.836   1.677   1.664   1.689   1.688
   148.54    2.462   2.522   2.495   2.464   2.293   2.362   2.265   2.237   2.217   2.126   2.003   2.007   2.047   2.018   2.089   2.059   2.109   2.002   2.013   2.022   1.958   1.937   1.883   1.823   1.752   1.703   1.708   1.754   1.814   1.777   1.647   1.659   1.565
   144.48    2.362   2.391   2.408   2.283   2.271   2.282   2.314   2.419   2.322   2.226   2.102   1.969   1.985   2.067   1.909   1.944   2.027   2.035   2.108   2.039   1.980   1.905   1.880   1.837   1.744   1.784   1.702   1.749   1.766   1.680   1.612   1.594   1.640
   140.41    2.395   2.335   2.291   2.219   2.217   2.336   2.233   2.256   2.338   2.226   2.102   2.123   1.972   1.995   1.919   1.916   1.967   2.029   1.977   2.123   1.998   1.883   1.829   1.859   1.836   1.756   1.672   1.725   1.757   1.727   1.630   1.633   1.666
   136.35    2.380   2.367   2.285   2.282   2.220   2.158   2.251   2.321   2.273   2.136   2.084   2.100   2.013   1.849   1.906   1.874   1.955   2.054   2.044   2.106   2.028   1.937   1.998   1.840   1.814   1.820   1.796   1.810   1.668   1.680   1.707   1.659   1.609
   132.29    2.356   2.335   2.158   2.158   2.217   2.201   2.268   2.198   2.252   2.212   1.979   2.004   1.920   1.749   1.846   1.779   2.010   2.034   2.088   1.915   1.933   1.961   1.952   1.789   1.892   1.734   1.702   1.724   1.571   1.655   1.582   1.488   1.578
   128.23    2.335   2.298   2.269   2.222   2.179   2.303   2.221   2.215   2.236   2.160   2.030   1.958   1.935   1.833   1.712   1.780   1.829   1.902   1.949   2.015   1.901   2.007   1.783   1.795   1.676   1.637   1.527   1.624   1.744   1.794   1.724   1.646   1.649
   124.16    2.378   2.383   2.211   2.135   2.200   2.316   2.270   2.214   2.194   1.992   1.863   1.963   1.863   1.823   1.844   1.746   1.675   1.826   1.843   1.868   1.948   1.915   1.835   1.819   1.765   1.714   1.643   1.654   1.766   1.764   1.687   1.661   1.629
   120.10    2.422   2.357   2.202   2.071   2.145   2.222   2.244   2.263   2.169   2.016   1.947   1.970   1.937   1.795   1.852   1.741   1.721   1.823   1.853   1.924   1.888   1.959   1.920   1.775   1.786   1.743   1.667   1.610   1.684   1.646   1.662   1.604   1.592
   116.04    2.462   2.423   2.247   2.166   1.976   2.082   2.242   2.221   2.145   2.077   1.977   1.899   1.763   1.682   1.804   1.626   1.616   1.742   1.789   1.786   1.879   1.957   1.850   1.869   1.933   1.820   1.730   1.760   1.749   1.695   1.643   1.564   1.573
   111.98    2.349   2.369   2.344   2.272   1.999   2.073   2.068   2.088   2.055   1.945   1.870   1.828   1.730   1.779   1.803   1.679   1.649   1.774   1.768   1.872   1.894   1.737   1.744   1.953   1.994   1.890   1.795   1.910   1.846   1.767   1.796   1.658   1.582
   107.91    2.317   2.311   2.353   2.113   2.058   2.067   2.023   2.047   2.010   1.875   1.883   1.862   1.695   1.757   1.777   1.618   1.639   1.730   1.872   1.941   1.931   1.818   1.808   1.959   2.049   1.997   1.928   1.895   1.796   1.840   1.721   1.672   1.537
   103.85    2.273   2.392   2.333   2.173   2.063   2.023   1.984   2.075   1.896   1.920   1.941   1.812   1.658   1.684   1.658   1.749   1.621   1.670   1.794   1.809   1.869   1.867   1.864   2.013   2.089   2.046   2.017   2.079   2.022   1.832   1.785   1.679   1.622
    99.79    2.307   2.300   2.251   2.297   2.201   2.105   2.103   2.050   2.044   1.972   1.889   1.908   1.837   1.818   1.711   1.744   1.720   1.763   1.813   1.757   1.769   1.838   1.745   1.955   2.029   1.918   1.925   1.953   1.786   1.727   1.687   1.719   1.474
    95.73    2.154   2.157   2.119   2.174   2.056   2.164   2.101   2.028   1.952   1.947   1.869   1.948   1.932   1.711   1.657   1.791   1.876   1.887   1.865   1.699   1.711   1.787   1.812   1.873   1.949   1.999   1.923   1.932   1.840   1.734   1.628   1.586   1.519
    91.66    1.974   2.112   2.144   2.152   2.035   2.069   2.098   2.112   1.953   1.897   1.914   1.980   1.977   1.823   1.870   1.863   1.886   1.849   1.827   1.864   1.892   1.746   1.700   1.847   1.891   1.814   1.817   1.709   1.784   1.747   1.596   1.585   1.474
    87.60    2.019   2.074   2.100   2.109   2.070   2.110   2.061   2.105   1.800   1.819   1.717   1.826   1.837   1.821   1.819   1.942   1.884   1.819   1.877   1.790   1.885   1.835   1.853   1.875   1.944   1.807   1.859   1.768   1.719   1.724   1.703   1.652   1.668
    83.54    2.007   2.052   2.040   2.146   2.207   2.215   2.025   1.956   1.915   1.877   1.732   1.672   1.819   1.814   1.828   1.720   1.887   1.815   1.797   1.738   1.790   1.882   1.897   1.903   1.907   1.942   1.848   1.755   1.667   1.712   1.699   1.784   1.685
    79.48    2.104   2.090   2.059   2.093   2.187   2.102   1.959   1.989   1.905   1.885   1.721   1.837   1.839   1.758   1.690   1.698   1.786   1.761   1.797   1.916   1.902   1.912   1.868   1.874   1.989   1.897   1.908   1.808   1.704   1.671   1.687   1.747   1.656
    75.41    2.054   2.107   1.953   2.018   2.086   2.185   1.903   1.890   1.893   1.893   1.798   1.798   1.848   1.697   1.761   1.761   1.762   1.838   1.953   1.849   1.933   1.843   1.900   1.976   1.942   1.811   1.891   1.785   1.684   1.584   1.701   1.654   1.748
    71.35    2.009   2.012   2.028   2.095   2.124   2.174   2.008   1.836   1.733   1.744   1.859   1.876   1.839   1.829   1.758   1.803   1.852   1.913   1.930   1.901   1.916   1.884   1.882   1.891   1.981   1.917   1.860   1.709   1.700   1.617   1.680   1.709   1.711
    67.29    2.185   2.117   2.124   1.998   1.979   2.033   1.956   1.852   1.776   1.810   1.919   1.870   1.884   1.823   1.780   1.813   1.855   1.899   1.829   1.766   1.849   1.931   1.899   2.040   1.908   1.923   1.794   1.712   1.639   1.591   1.711   1.835   1.898
    63.23    2.143   2.233   2.125   2.051   2.029   2.085   1.902   1.810   1.750   1.813   1.922   1.951   1.937   1.909   1.882   1.928   1.875   1.882   1.855   1.839   1.823   1.911   1.953   1.920   1.989   1.927   1.766   1.672   1.590   1.511   1.604   1.735   1.828
    59.16    2.076   2.175   2.022   1.973   1.954   1.967   1.873   1.761   1.731   1.810   1.883   1.951   2.014   1.962   1.919   1.982   2.001   1.963   1.910   1.951   1.930   1.957   1.974   1.903   1.814   1.862   1.776   1.679   1.592   1.637   1.638   1.728   1.804
    55.10    2.009   2.045   1.995   1.892   1.820   1.974   1.798   1.760   1.708   1.816   1.971   1.954   1.919   1.906   1.871   1.919   1.957   1.958   1.947   2.003   1.856   1.824   1.864   1.892   1.853   1.908   1.857   1.826   1.777   1.762   1.731   1.719   1.798
    51.04    2.005   1.987   1.936   1.846   1.808   1.775   1.687   1.723   1.822   1.861   1.883   1.926   1.917   1.829   1.858   1.962   1.955   1.858   2.000   1.936   1.833   1.782   1.885   1.863   1.842   1.871   1.985   1.937   1.982   1.824   1.777   1.726   1.754
    46.98    2.025   1.961   1.867   1.808   1.731   1.798   1.786   1.831   1.824   1.754   1.798   1.905   1.878   1.876   1.795   1.938   1.832   1.864   1.814   1.972   1.850   1.890   1.820   1.842   1.819   1.890   1.971   1.916   1.991   1.842   1.903   1.763   1.870
    42.91    1.936   1.914   1.774   1.804   1.841   1.824   1.929   1.932   1.781   1.879   1.944   1.945   1.868   1.832   1.832   1.845   1.822   1.793   1.831   1.880   1.816   1.766   1.748   1.814   1.754   1.853   1.861   1.918   1.889   1.985   1.879   1.757   1.684
    38.85    1.923   1.869   1.857   1.809   1.931   1.837   1.790   1.928   1.902   1.866   1.868   1.845   1.791   1.766   1.792   1.946   1.820   1.849   1.894   1.951   1.905   1.819   1.725   1.851   1.834   1.839   1.882   1.881   1.848   1.909   1.889   1.797   1.842
    34.79    1.828   1.911   1.883   1.848   1.821   1.845   1.851   1.890   1.899   1.799   1.884   1.868   1.759   1.903   1.900   1.908   1.830   1.858   1.907   1.863   1.867   1.735   1.724   1.771   1.757   1.702   1.699   1.769   1.889   1.793   1.796   1.767   1.802
    30.73    1.982   1.758   1.871   1.811   1.893   1.963   1.870   1.862   1.904   1.761   1.896   1.894   1.895   1.929   1.852   1.858   1.871   1.854   1.900   1.903   1.863   1.793   1.725   1.704   1.732   1.735   1.679   1.760   1.835   1.777   1.882   1.800   1.806
    26.66    2.004   1.903   1.871   1.900   1.888   1.889   1.994   2.040   1.996   1.937   1.977   1.960   1.840   1.870   1.825   2.011   1.979   1.872   1.739   1.846   1.842   1.813   1.822   1.718   1.726   1.740   1.807   1.831   1.755   1.781   1.859   1.847   1.777
    22.60    1.969   2.010   2.013   1.978   1.974   2.016   2.033   2.022   1.947   1.924   1.888   1.870   1.881   1.822   1.876   1.921   1.934   1.928   1.774   1.787   1.746   1.743   1.790   1.668   1.756   1.821   1.815   1.779   1.709   1.834   1.760   1.895   1.885

   Height   Standard deviation at grid points for the v component:
   152.60    1.320   1.267   1.289   1.302   1.346   1.262   1.248   1.373   1.338   1.362   1.245   1.225   1.203   1.269   1.246   1.285   1.356   1.388   1.434   1.413   1.434   1.500   1.476   1.513   1.498   1.445   1.467   1.468   1.508   1.483   1.443   1.473   1.498
   148.54    1.285   1.292   1.293   1.357   1.311   1.293   1.377   1.373   1.322   1.348   1.277   1.199   1.224   1.315   1.276   1.361   1.402   1.434   1.404   1.452   1.429   1.437   1.407   1.462   1.455   1.453   1.486   1.507   1.509   1.535   1.483   1.527   1.569
   144.48    1.268   1.222   1.282   1.348   1.353   1.348   1.314   1.331   1.337   1.349   1.290   1.220   1.264   1.321   1.337   1.378   1.387   1.386   1.409   1.399   1.385   1.421   1.427   1.540   1.487   1.475   1.441   1.529   1.528   1.477   1.513   1.522   1.539
   140.41    1.346   1.290   1.320   1.390   1.438   1.376   1.370   1.416   1.393   1.326   1.334   1.281   1.311   1.358   1.314   1.377   1.357   1.391   1.321   1.360   1.398   1.381   1.421   1.437   1.502   1.479   1.463   1.501   1.493   1.482   1.532   1.520   1.487
   136.35    1.370   1.286   1.370   1.412   1.399   1.427   1.435   1.421   1.365   1.316   1.367   1.312   1.278   1.334   1.356   1.387   1.428   1.401   1.367   1.319   1.285   1.358   1.381   1.400   1.438   1.475   1.462   1.511   1.542   1.494   1.499   1.496   1.571
   132.29    1.367   1.255   1.291   1.329   1.355   1.379   1.413   1.400   1.380   1.310   1.322   1.270   1.262   1.302   1.379   1.425   1.397   1.362   1.362   1.272   1.263   1.326   1.291   1.362   1.433   1.441   1.482   1.459   1.517   1.522   1.549   1.582   1.549
   128.23    1.268   1.272   1.257   1.237   1.348   1.360   1.322   1.321   1.379   1.368   1.256   1.275   1.266   1.336   1.377   1.378   1.303   1.263   1.321   1.352   1.270   1.350   1.342   1.367   1.437   1.409   1.462   1.532   1.515   1.580   1.544   1.578   1.606
   124.16    1.236   1.232   1.153   1.219   1.292   1.290   1.276   1.243   1.336   1.375   1.311   1.258   1.248   1.313   1.368   1.310   1.292   1.301   1.339   1.336   1.345   1.414   1.405   1.379   1.427   1.524   1.523   1.496   1.548   1.548   1.593   1.589   1.675
   120.10    1.245   1.199   1.142   1.236   1.241   1.242   1.212   1.227   1.296   1.330   1.357   1.309   1.233   1.251   1.268   1.327   1.412   1.441   1.431   1.449   1.359   1.350   1.357   1.402   1.405   1.424   1.543   1.544   1.527   1.562   1.525   1.559   1.540
   116.04    1.269   1.213   1.219   1.249   1.227   1.242   1.256   1.309   1.300   1.295   1.276   1.289   1.256   1.243   1.343   1.442   1.525   1.437   1.448   1.415   1.398   1.343   1.417   1.417   1.397   1.463   1.492   1.578   1.570   1.522   1.580   1.596   1.591
   111.98    1.325   1.281   1.239   1.215   1.237   1.268   1.296   1.326   1.335   1.286   1.266   1.278   1.257   1.318   1.396   1.493   1.474   1.460   1.505   1.468   1.493   1.435   1.437   1.516   1.467   1.429   1.482   1.533   1.555   1.599   1.643   1.683   1.664
   107.91    1.339   1.316   1.305   1.287   1.313   1.294   1.334   1.337   1.373   1.376   1.330   1.292   1.396   1.372   1.416   1.505   1.544   1.521   1.555   1.560   1.498   1.541   1.487   1.480   1.553   1.575   1.548   1.655   1.574   1.586   1.643   1.661   1.683
   103.85    1.397   1.375   1.299   1.275   1.335   1.386   1.313   1.383   1.400   1.432   1.348   1.338   1.396   1.388   1.382   1.425   1.527   1.513   1.518   1.577   1.489   1.551   1.520   1.504   1.548   1.612   1.583   1.572   1.526   1.629   1.651   1.711   1.648
    99.79    1.447   1.368   1.358   1.355   1.369   1.371   1.362   1.405   1.444   1.422   1.405   1.434   1.463   1.448   1.441   1.460   1.481   1.518   1.573   1.563   1.599   1.578   1.503   1.498   1.486   1.564   1.608   1.588   1.579   1.549   1.594   1.577   1.554
    95.73    1.440   1.395   1.414   1.406   1.422   1.359   1.408   1.406   1.438   1.407   1.432   1.535   1.473   1.477   1.434   1.500   1.499   1.562   1.540   1.569   1.581   1.631   1.573   1.555   1.535   1.597   1.615   1.562   1.505   1.560   1.530   1.445   1.459
    91.66    1.501   1.415   1.441   1.434   1.437   1.369   1.388   1.408   1.404   1.425   1.478   1.563   1.537   1.576   1.520   1.530   1.529   1.499   1.613   1.592   1.602   1.653   1.629   1.677   1.703   1.632   1.586   1.590   1.525   1.433   1.469   1.456   1.448
    87.60    1.517   1.450   1.432   1.473   1.465   1.481   1.487   1.425   1.396   1.465   1.528   1.520   1.587   1.580   1.551   1.557   1.469   1.454   1.505   1.577   1.630   1.626   1.697   1.664   1.624   1.610   1.572   1.526   1.543   1.420   1.424   1.456   1.470
    83.54    1.513   1.461   1.468   1.476   1.444   1.485   1.471   1.447   1.402   1.479   1.529   1.580   1.512   1.481   1.577   1.571   1.571   1.509   1.537   1.619   1.552   1.638   1.655   1.679   1.621   1.555   1.553   1.472   1.490   1.445   1.444   1.424   1.496
    79.48    1.528   1.450   1.484   1.477   1.437   1.528   1.503   1.498   1.491   1.491   1.503   1.481   1.523   1.576   1.562   1.593   1.555   1.589   1.591   1.620   1.585   1.601   1.679   1.688   1.654   1.556   1.542   1.502   1.406   1.377   1.398   1.404   1.510
    75.41    1.535   1.516   1.486   1.551   1.573   1.561   1.469   1.492   1.553   1.442   1.466   1.523   1.566   1.610   1.628   1.594   1.554   1.557   1.565   1.613   1.629   1.644   1.648   1.616   1.603   1.623   1.528   1.461   1.363   1.433   1.439   1.514   1.503
    71.35    1.557   1.491   1.458   1.542   1.594   1.580   1.618   1.561   1.538   1.547   1.460   1.511   1.540   1.560   1.520   1.567   1.586   1.622   1.674   1.638   1.622   1.623   1.538   1.624   1.611   1.585   1.518   1.503   1.440   1.462   1.433   1.497   1.567
    67.29    1.534   1.457   1.456   1.526   1.578   1.581   1.586   1.532   1.508   1.499   1.527   1.527   1.521   1.504   1.506   1.561   1.571   1.600   1.637   1.632   1.633   1.589   1.581   1.542   1.576   1.585   1.572   1.527   1.519   1.468   1.463   1.489   1.596
    63.23    1.492   1.434   1.499   1.565   1.533   1.521   1.558   1.513   1.551   1.505   1.537   1.527   1.472   1.506   1.510   1.575   1.554   1.539   1.557   1.547   1.566   1.646   1.612   1.593   1.609   1.612   1.579   1.573   1.549   1.479   1.470   1.527   1.565
    59.16    1.481   1.481   1.522   1.549   1.501   1.503   1.524   1.502   1.524   1.613   1.604   1.519   1.548   1.479   1.465   1.493   1.506   1.523   1.433   1.482   1.494   1.573   1.533   1.568   1.590   1.558   1.544   1.532   1.524   1.545   1.515   1.452   1.521
    55.10    1.499   1.451   1.492   1.530   1.435   1.452   1.522   1.536   1.548   1.544   1.565   1.579   1.477   1.454   1.453   1.502   1.484   1.460   1.397   1.424   1.450   1.498   1.486   1.526   1.591   1.546   1.560   1.530   1.504   1.501   1.455   1.468   1.560
    51.04    1.448   1.414   1.464   1.475   1.424   1.464   1.459   1.523   1.475   1.467   1.527   1.533   1.504   1.415   1.442   1.514   1.457   1.494   1.460   1.484   1.468   1.507   1.528   1.587   1.535   1.557   1.515   1.531   1.489   1.531   1.480   1.494   1.534
    46.98    1.406   1.450   1.432   1.487   1.442   1.515   1.486   1.467   1.457   1.399   1.503   1.500   1.513   1.455   1.451   1.559   1.514   1.495   1.511   1.515   1.471   1.511   1.559   1.497   1.541   1.482   1.521   1.600   1.601   1.537   1.491   1.458   1.508
    42.91    1.499   1.464   1.479   1.472   1.483   1.458   1.411   1.399   1.439   1.450   1.504   1.406   1.466   1.462   1.446   1.464   1.531   1.446   1.389   1.405   1.456   1.522   1.532   1.531   1.555   1.501   1.509   1.541   1.576   1.570   1.492   1.534   1.515
    38.85    1.464   1.495   1.470   1.471   1.447   1.474   1.442   1.512   1.507   1.546   1.545   1.473   1.474   1.468   1.476   1.498   1.506   1.470   1.439   1.435   1.495   1.514   1.517   1.478   1.567   1.512   1.463   1.531   1.550   1.533   1.535   1.520   1.571
    34.79    1.528   1.526   1.484   1.483   1.481   1.491   1.507   1.513   1.469   1.529   1.537   1.483   1.513   1.495   1.522   1.489   1.470   1.494   1.429   1.447   1.499   1.561   1.504   1.501   1.487   1.497   1.493   1.517   1.540   1.578   1.541   1.483   1.507
    30.73    1.483   1.483   1.513   1.496   1.509   1.531   1.526   1.553   1.529   1.497   1.543   1.530   1.502   1.417   1.441   1.498   1.550   1.550   1.494   1.507   1.508   1.453   1.523   1.535   1.519   1.504   1.531   1.502   1.559   1.572   1.579   1.472   1.540
    26.66    1.496   1.493   1.467   1.533   1.525   1.558   1.561   1.559   1.540   1.529   1.545   1.509   1.509   1.417   1.428   1.438   1.524   1.525   1.539   1.500   1.482   1.505   1.505   1.506   1.512   1.478   1.545   1.557   1.576   1.574   1.513   1.582   1.568
    22.60    1.498   1.520   1.514   1.498   1.509   1.560   1.575   1.576   1.513   1.541   1.550   1.482   1.494   1.443   1.461   1.490   1.488   1.472   1.522   1.503   1.443   1.480   1.492   1.492   1.527   1.512   1.549   1.565   1.587   1.591   1.564   1.539   1.549

   Height   Standard deviation at grid points for the w component:
   152.60    1.140   1.088   1.149   1.152   1.121   1.159   1.167   1.113   1.094   1.115   1.125   1.154   1.102   1.094   1.090   1.115   1.138   1.131   1.144   1.131   1.059   1.020   1.101   1.096   1.145   1.134   1.138   1.119   1.122   1.062   1.095   1.104   1.120
   148.54    1.106   1.108   1.108   1.108   1.129   1.141   1.108   1.101   1.113   1.168   1.175   1.115   1.132   1.104   1.163   1.158   1.174   1.155   1.164   1.114   1.073   1.046   1.111   1.132   1.138   1.117   1.133   1.111   1.152   1.085   1.102   1.088   1.110
   144.48    1.092   1.080   1.083   1.067   1.077   1.106   1.092   1.127   1.145   1.203   1.206   1.148   1.107   1.154   1.152   1.130   1.158   1.176   1.158   1.051   1.040   1.101   1.107   1.163   1.117   1.159   1.155   1.177   1.130   1.128   1.130   1.062   1.115
   140.41    1.124   1.087   1.066   1.115   1.101   1.115   1.138   1.121   1.158   1.207   1.139   1.162   1.181   1.176   1.148   1.185   1.213   1.180   1.165   1.148   1.131   1.161   1.224   1.217   1.191   1.146   1.190   1.185   1.138   1.166   1.158   1.117   1.022
   136.35    1.091   1.102   1.088   1.110   1.117   1.115   1.058   1.114   1.154   1.164   1.135   1.195   1.185   1.227   1.221   1.209   1.167   1.189   1.224   1.151   1.150   1.156   1.212   1.197   1.164   1.127   1.158   1.174   1.148   1.111   1.089   1.079   1.082
   132.29    1.099   1.081   1.109   1.104   1.134   1.087   1.075   1.091   1.075   1.126   1.071   1.161   1.171   1.200   1.183   1.191   1.171   1.194   1.215   1.129   1.129   1.170   1.218   1.181   1.153   1.194   1.186   1.157   1.172   1.125   1.130   1.125   1.120
   128.23    1.121   1.090   1.093   1.075   1.100   1.110   1.110   1.118   1.082   1.068   1.041   1.123   1.204   1.180   1.137   1.203   1.224   1.222   1.209   1.165   1.124   1.206   1.201   1.175   1.181   1.162   1.210   1.217   1.171   1.149   1.121   1.171   1.121
   124.16    1.117   1.065   1.078   1.105   1.092   1.118   1.156   1.165   1.149   1.124   1.092   1.087   1.142   1.203   1.199   1.221   1.233   1.176   1.189   1.129   1.191   1.205   1.191   1.166   1.149   1.217   1.201   1.215   1.209   1.142   1.104   1.131   1.127
   120.10    1.120   1.087   1.093   1.073   1.079   1.144   1.210   1.191   1.146   1.125   1.127   1.072   1.118   1.095   1.106   1.144   1.173   1.189   1.245   1.218   1.229   1.168   1.185   1.147   1.152   1.181   1.216   1.187   1.163   1.099   1.109   1.079   1.122
   116.04    1.129   1.124   1.086   1.085   1.087   1.138   1.180   1.127   1.129   1.131   1.123   1.133   1.136   1.122   1.118   1.120   1.153   1.202   1.232   1.201   1.199   1.138   1.158   1.167   1.174   1.134   1.169   1.187   1.135   1.111   1.085   1.074   1.158
   111.98    1.184   1.204   1.158   1.097   1.120   1.136   1.127   1.156   1.119   1.126   1.176   1.157   1.172   1.189   1.180   1.175   1.132   1.160   1.179   1.165   1.168   1.138   1.199   1.169   1.175   1.150   1.151   1.125   1.093   1.095   1.132   1.089   1.106
   107.91    1.156   1.188   1.158   1.129   1.135   1.097   1.095   1.126   1.172   1.142   1.120   1.127   1.152   1.181   1.173   1.174   1.164   1.190   1.166   1.120   1.155   1.165   1.187   1.226   1.218   1.147   1.095   1.110   1.116   1.125   1.124   1.152   1.110
   103.85    1.115   1.150   1.122   1.116   1.093   1.087   1.079   1.117   1.110   1.101   1.092   1.071   1.157   1.178   1.186   1.215   1.175   1.159   1.161   1.170   1.177   1.142   1.206   1.267   1.242   1.224   1.175   1.145   1.141   1.162   1.158   1.159   1.101
    99.79    1.155   1.130   1.122   1.087   1.092   1.095   1.081   1.069   1.087   1.117   1.102   1.128   1.215   1.176   1.208   1.217   1.213   1.185   1.196   1.187   1.201   1.220   1.223   1.190   1.186   1.234   1.213   1.139   1.165   1.167   1.162   1.147   1.177
    95.73    1.166   1.185   1.180   1.103   1.078   1.088   1.098   1.107   1.076   1.090   1.104   1.154   1.207   1.173   1.185   1.252   1.200   1.172   1.188   1.196   1.193   1.178   1.186   1.223   1.213   1.243   1.194   1.158   1.133   1.149   1.160   1.132   1.138
    91.66    1.205   1.186   1.201   1.119   1.116   1.129   1.176   1.139   1.096   1.123   1.161   1.210   1.220   1.190   1.210   1.213   1.196   1.184   1.249   1.197   1.152   1.146   1.134   1.207   1.196   1.189   1.233   1.172   1.169   1.161   1.172   1.144   1.130
    87.60    1.199   1.195   1.189   1.155   1.162   1.195   1.208   1.217   1.195   1.202   1.216   1.231   1.194   1.195   1.202   1.155   1.211   1.201   1.194   1.188   1.139   1.180   1.168   1.208   1.193   1.175   1.228   1.172   1.156   1.185   1.199   1.135   1.136
    83.54    1.116   1.138   1.162   1.116   1.228   1.195   1.217   1.204   1.177   1.211   1.240   1.156   1.133   1.170   1.160   1.172   1.204   1.202   1.166   1.132   1.146   1.153   1.190   1.226   1.232   1.216   1.224   1.221   1.163   1.132   1.132   1.137   1.169
    79.48    1.108   1.078   1.121   1.160   1.158   1.157   1.200   1.161   1.181   1.169   1.175   1.133   1.122   1.123   1.132   1.134   1.150   1.193   1.137   1.068   1.120   1.154   1.230   1.205   1.225   1.237   1.194   1.205   1.128   1.128   1.148   1.160   1.186
    75.41    1.097   1.081   1.115   1.138   1.167   1.137   1.164   1.181   1.177   1.169   1.176   1.177   1.161   1.142   1.112   1.131   1.104   1.123   1.130   1.183   1.167   1.179   1.163   1.205   1.210   1.190   1.217   1.184   1.189   1.138   1.166   1.193   1.179
    71.35    1.100   1.134   1.122   1.118   1.109   1.187   1.178   1.186   1.216   1.162   1.133   1.148   1.159   1.119   1.095   1.115   1.080   1.122   1.146   1.155   1.151   1.208   1.172   1.208   1.184   1.238   1.237   1.201   1.186   1.172   1.144   1.180   1.180
    67.29    1.187   1.139   1.120   1.132   1.135   1.142   1.165   1.165   1.203   1.228   1.173   1.144   1.142   1.127   1.110   1.119   1.104   1.138   1.107   1.134   1.131   1.199   1.225   1.229   1.179   1.207   1.215   1.181   1.181   1.160   1.119   1.151   1.167
    63.23    1.155   1.152   1.104   1.136   1.149   1.164   1.156   1.127   1.191   1.197   1.171   1.150   1.129   1.140   1.124   1.124   1.104   1.142   1.141   1.157   1.133   1.166   1.250   1.270   1.184   1.261   1.188   1.187   1.204   1.148   1.155   1.155   1.175
    59.16    1.142   1.139   1.116   1.130   1.168   1.123   1.184   1.190   1.188   1.202   1.237   1.184   1.173   1.100   1.141   1.138   1.140   1.119   1.163   1.128   1.147   1.149   1.213   1.253   1.205   1.185   1.194   1.223   1.184   1.127   1.149   1.188   1.147
    55.10    1.164   1.126   1.097   1.136   1.160   1.190   1.163   1.183   1.162   1.183   1.267   1.225   1.186   1.219   1.150   1.135   1.181   1.208   1.171   1.215   1.146   1.160   1.152   1.174   1.205   1.168   1.155   1.184   1.114   1.123   1.167   1.133   1.128
    51.04    1.175   1.197   1.143   1.176   1.146   1.184   1.201   1.143   1.186   1.175   1.203   1.213   1.160   1.183   1.172   1.203   1.193   1.192   1.169   1.209   1.164   1.189   1.183   1.168   1.182   1.178   1.174   1.153   1.138   1.165   1.157   1.152   1.181
    46.98    1.153   1.166   1.164   1.182   1.140   1.161   1.196   1.152   1.168   1.163   1.193   1.217   1.203   1.188   1.202   1.222   1.225   1.243   1.221   1.175   1.198   1.211   1.175   1.201   1.199   1.206   1.157   1.158   1.173   1.108   1.155   1.119   1.153
    42.91    1.161   1.137   1.149   1.233   1.141   1.169   1.192   1.177   1.194   1.236   1.202   1.247   1.220   1.216   1.192   1.165   1.240   1.225   1.216   1.185   1.132   1.165   1.169   1.168   1.183   1.168   1.195   1.182   1.141   1.120   1.103   1.123   1.164
    38.85    1.137   1.158   1.187   1.195   1.215   1.231   1.179   1.174   1.212   1.209   1.208   1.192   1.177   1.179   1.162   1.161   1.202   1.214   1.181   1.166   1.174   1.165   1.180   1.190   1.189   1.171   1.150   1.159   1.159   1.150   1.115   1.112   1.153
    34.79    1.145   1.179   1.170   1.209   1.167   1.207   1.158   1.175   1.199   1.207   1.175   1.154   1.200   1.169   1.178   1.188   1.193   1.199   1.182   1.133   1.169   1.183   1.145   1.195   1.175   1.198   1.146   1.142   1.122   1.182   1.137   1.127   1.163
    30.73    1.174   1.181   1.187   1.168   1.219   1.173   1.166   1.151   1.182   1.174   1.159   1.185   1.178   1.177   1.183   1.195   1.199   1.175   1.156   1.167   1.194   1.212   1.191   1.177   1.186   1.174   1.182   1.145   1.163   1.151   1.132   1.106   1.167
    26.66    1.183   1.174   1.190   1.143   1.170   1.180   1.169   1.111   1.129   1.130   1.156   1.173   1.149   1.140   1.142   1.169   1.162   1.172   1.161   1.149   1.155   1.157   1.197   1.189   1.163   1.189   1.168   1.128   1.153   1.113   1.106   1.111   1.107
    22.60    1.154   1.134   1.186   1.162   1.181   1.210   1.154   1.164   1.127   1.129   1.153   1.182   1.152   1.121   1.153   1.171   1.162   1.166   1.155   1.150   1.144   1.145   1.159   1.181   1.164   1.157   1.150   1.144   1.116   1.128   1.112   1.128   1.102

   Mean standard deviation across all grid points:
      u component:    1.903 m/s
      v component:    1.468 m/s
      w component:    1.157 m/s


U-component (X) statistics from the hub grid point:

   Mean =  18.0000 m/s
   TI   =  10.4684 %

Nyquist frequency of turbulent wind field =        10.000 Hz


Processing complete.  338 CPU seconds used.
