
This summary file was generated by TurbSim (v1.06.00, 21-Sep-2012) on 02-Sep-2020 at 21:00:27.


Runtime Options:

   2318573  Random seed #1
    RANLUX  Type of random number generator
         F  Output binary HH turbulence parameters?
         F  Output formatted turbulence parameters?
         F  Output AeroDyn HH files?
         T  Output AeroDyn FF files?
         F  Output BLADED FF files?
         T  Output tower data?
         F  Output formatted FF files?
         F  Output coherent turbulence time step file?
         T  Clockwise rotation when looking downwind?
 0 -  NONE  IEC turbulence models scaled to exact specified standard deviation


Turbine/Model Specifications:

        31  Vertical grid-point matrix dimension
        31  Horizontal grid-point matrix dimension
     0.050  Time step [seconds]
   600.000  Analysis time [seconds]
   600.000  Usable output time [seconds]
    87.600  Hub height [m]
   140.000  Grid height [m]
   140.000  Grid width [m]
     0.000  Vertical flow angle [degrees]
     0.000  Horizontal flow angle [degrees]


Meteorological Boundary Conditions:

    SMOOTH  RISO Smooth Terrain spectral model
       N/A  IEC standard
       N/A  IEC turbulence characteristic
       N/A  IEC turbulence type
       N/A  IEC Extreme Turbulence Model (ETM) "c" parameter [m/s]
       IEC  Wind profile type
    90.000  Reference height [m]
    12.000  Reference wind speed [m/s]
       N/A  Jet height [m]
     0.143  Power law exponent
     0.010  Surface roughness length [m]


Non-IEC Meteorological Boundary Conditions:

    45.000  Site latitude [degrees]
     0.050  Gradient Richardson number
     0.509  Friction or shear velocity [m/s]
       N/A  Mixing layer depth [m]
    -0.259  Mean hub u'w' Reynolds stress
       N/A  Mean hub u'v' Reynolds stress
       N/A  Mean hub v'w' Reynolds stress
(   11.954,  0.00    )  u-component coherence parameters
(    8.965,  0.00    )  v-component coherence parameters
(    8.965,  0.00    )  w-component coherence parameters
     0.000  Coherence exponent


You have requested that the following file(s) be generated:

   unsteady_tmp_12.bts (AeroDyn/TurbSim full-field wind file)


Turbulence Simulation Scaling Parameter Summary:

   Turbulence model used                            =  RISO Smooth Terrain
   Gradient Richardson number                       =    0.050
   Monin-Obukhov (M-O) z/L parameter                =    0.067
   Monin-Obukhov (M-O) length scale                 = 1314.000 m
   Mean wind speed at hub height                    =   11.954 m/s

   Wind profile type                                =  Power law on rotor disk, logarithmic elsewhere
   Power law exponent                               =    0.143
   Mean shear across rotor disk                     =    0.023 (m/s)/m
   Assumed rotor diameter                           =  140.000 m
   Surface roughness length                         =    0.010 m

   Number of time steps in the FFT                  =    12236
   Number of time steps output                      =    12235


Mean Flow Angles:

   Vertical   =   0.0 degrees
   Horizontal =   0.0 degrees

Mean Wind Speed Profile:

   Height    Wind Speed   Horizontal Angle  U-comp (X)   V-comp (Y)   W-comp (Z)
     (m)        (m/s)         (degrees)       (m/s)        (m/s)        (m/s)   
   ------    ----------   ----------------  ----------   ----------   ----------
    157.6       12.73            0.00         12.73         0.00         0.00
    152.9       12.95            0.00         12.95         0.00         0.00
    148.3       12.89            0.00         12.89         0.00         0.00
    143.6       12.83            0.00         12.83         0.00         0.00
    138.9       12.77            0.00         12.77         0.00         0.00
    134.3       12.71            0.00         12.71         0.00         0.00
    129.6       12.64            0.00         12.64         0.00         0.00
    124.9       12.58            0.00         12.58         0.00         0.00
    120.3       12.51            0.00         12.51         0.00         0.00
    115.6       12.44            0.00         12.44         0.00         0.00
    110.9       12.36            0.00         12.36         0.00         0.00
    106.3       12.29            0.00         12.29         0.00         0.00
    101.6       12.21            0.00         12.21         0.00         0.00
     96.9       12.13            0.00         12.13         0.00         0.00
     92.3       12.04            0.00         12.04         0.00         0.00
     87.6       11.95            0.00         11.95         0.00         0.00
     82.9       11.86            0.00         11.86         0.00         0.00
     78.3       11.76            0.00         11.76         0.00         0.00
     73.6       11.66            0.00         11.66         0.00         0.00
     68.9       11.55            0.00         11.55         0.00         0.00
     64.3       11.44            0.00         11.44         0.00         0.00
     59.6       11.31            0.00         11.31         0.00         0.00
     54.9       11.18            0.00         11.18         0.00         0.00
     50.3       11.04            0.00         11.04         0.00         0.00
     45.6       10.89            0.00         10.89         0.00         0.00
     40.9       10.72            0.00         10.72         0.00         0.00
     36.3       10.54            0.00         10.54         0.00         0.00
     31.6       10.33            0.00         10.33         0.00         0.00
     26.9       10.10            0.00         10.10         0.00         0.00
     22.3        9.83            0.00          9.83         0.00         0.00
     17.6        9.50            0.00          9.50         0.00         0.00
     12.9        9.43            0.00          9.43         0.00         0.00
      8.3        8.85            0.00          8.85         0.00         0.00
      3.6        7.75            0.00          7.75         0.00         0.00


Harvested Random Seeds after Generation of the Random Numbers:

    164399837 K1
            0 K2


Scaling statistics from the hub grid point:

   Cross-Component  Scaling Factor
   ---------------  --------------
   u'w'               -0.12626E+00
   u'v'                0.00000E+00
   v'w'                0.00000E+00


Hub-Height Simulated Turbulence Statistical Summary:

   Type of Wind        Min (m/s)   Mean (m/s)    Max (m/s)  Sigma (m/s)       TI (%)
   ----------------    ---------   ----------    ---------  -----------       ------
   Longitudinal (u)         8.05        11.95        16.60        1.489       12.459
   Lateral (v)             -2.66         0.00         3.16        0.846        7.080
   Vertical (w)            -2.51         0.00         2.94        0.802        6.707
   U component              8.05        11.95        16.60        1.489       12.459
   V component             -2.66         0.00         3.16        0.846        7.080
   W component             -2.51         0.00         2.94        0.802        6.707
   Horizontal (U&V)         8.05        11.98        16.60        1.493       12.459
   Total                    8.06        12.01        16.63        1.494       12.437

                       Min Reynolds     Mean Reynolds    Max Reynolds    Correlation
   Product             Stress (m/s)^2   Stress (m/s)^2   Stress (m/s)^2  Coefficient
   ----------------    --------------   --------------   --------------  -----------
   u'w'                     -7.017            -0.259             6.149        -0.217
   u'v'                     -6.261             0.037            10.156         0.029
   v'w'                     -3.882            -0.001             4.546        -0.001


   Friction Velocity (Ustar)  =      0.509 m/s
   Maximum Instantaneous TKE  =     11.279 (m/s)^2
   Maximum Instantaneous CTKE =      5.350 (m/s)^2


Grid Point Variance Summary:

   Y-coord  -70.00  -65.33  -60.67  -56.00  -51.33  -46.67  -42.00  -37.33  -32.67  -28.00  -23.33  -18.67  -14.00   -9.33   -4.67    0.00    4.67    9.33   14.00   18.67   23.33   28.00   32.67   37.33   42.00   46.67   51.33   56.00   60.67   65.33   70.00

   Height   Standard deviation at grid points for the u component:
   157.60    1.466   1.416   1.390   1.362   1.317   1.351   1.423   1.360   1.339   1.344   1.360   1.338   1.357   1.288   1.356   1.424   1.362   1.329   1.355   1.368   1.358   1.318   1.308   1.319   1.387   1.322   1.381   1.290   1.264   1.249   1.314
   152.93    1.524   1.496   1.404   1.351   1.372   1.379   1.406   1.408   1.374   1.386   1.339   1.330   1.256   1.390   1.402   1.404   1.378   1.357   1.404   1.326   1.349   1.346   1.268   1.324   1.288   1.324   1.347   1.313   1.280   1.297   1.348
   148.27    1.525   1.459   1.475   1.446   1.519   1.544   1.459   1.428   1.413   1.373   1.360   1.324   1.332   1.339   1.414   1.407   1.363   1.407   1.435   1.372   1.336   1.319   1.303   1.374   1.343   1.332   1.339   1.329   1.321   1.298   1.383
   143.60    1.492   1.466   1.525   1.492   1.469   1.524   1.549   1.507   1.444   1.374   1.417   1.363   1.354   1.365   1.387   1.390   1.410   1.390   1.319   1.320   1.353   1.305   1.312   1.372   1.283   1.308   1.353   1.318   1.316   1.348   1.356
   138.93    1.474   1.451   1.454   1.471   1.485   1.550   1.547   1.550   1.423   1.379   1.404   1.348   1.323   1.349   1.471   1.428   1.425   1.374   1.334   1.320   1.346   1.378   1.327   1.291   1.332   1.333   1.352   1.297   1.257   1.343   1.312
   134.27    1.502   1.495   1.572   1.557   1.545   1.575   1.476   1.576   1.522   1.490   1.410   1.396   1.317   1.379   1.409   1.408   1.364   1.366   1.321   1.358   1.419   1.341   1.344   1.358   1.396   1.413   1.315   1.225   1.221   1.318   1.276
   129.60    1.491   1.464   1.528   1.510   1.535   1.567   1.551   1.537   1.554   1.512   1.480   1.418   1.391   1.385   1.340   1.363   1.386   1.321   1.364   1.342   1.355   1.368   1.389   1.345   1.361   1.361   1.248   1.211   1.238   1.237   1.284
   124.93    1.547   1.550   1.513   1.535   1.482   1.494   1.524   1.520   1.552   1.552   1.555   1.528   1.441   1.394   1.368   1.330   1.398   1.356   1.342   1.374   1.427   1.342   1.352   1.385   1.324   1.310   1.289   1.258   1.244   1.203   1.215
   120.27    1.587   1.571   1.562   1.481   1.465   1.477   1.484   1.532   1.526   1.490   1.533   1.523   1.480   1.434   1.388   1.347   1.356   1.411   1.389   1.434   1.369   1.350   1.401   1.377   1.259   1.230   1.254   1.233   1.259   1.185   1.174
   115.60    1.558   1.508   1.475   1.479   1.454   1.447   1.434   1.521   1.540   1.536   1.532   1.536   1.482   1.417   1.392   1.392   1.372   1.349   1.373   1.410   1.332   1.305   1.347   1.339   1.266   1.298   1.292   1.248   1.280   1.272   1.172
   110.93    1.545   1.539   1.526   1.472   1.490   1.462   1.476   1.465   1.524   1.494   1.482   1.487   1.484   1.436   1.420   1.359   1.396   1.359   1.305   1.331   1.364   1.321   1.357   1.344   1.345   1.363   1.411   1.339   1.265   1.276   1.224
   106.27    1.463   1.501   1.462   1.496   1.513   1.455   1.547   1.502   1.573   1.554   1.560   1.513   1.478   1.561   1.468   1.455   1.464   1.387   1.337   1.346   1.333   1.324   1.353   1.357   1.437   1.364   1.353   1.362   1.286   1.286   1.233
   101.60    1.465   1.463   1.449   1.480   1.528   1.507   1.512   1.550   1.590   1.589   1.635   1.627   1.548   1.596   1.570   1.484   1.439   1.424   1.278   1.368   1.370   1.406   1.428   1.348   1.381   1.390   1.345   1.324   1.284   1.303   1.250
    96.93    1.468   1.481   1.452   1.467   1.453   1.488   1.516   1.513   1.536   1.605   1.644   1.618   1.625   1.637   1.584   1.564   1.413   1.335   1.319   1.352   1.371   1.454   1.450   1.391   1.432   1.375   1.364   1.350   1.359   1.318   1.255
    92.27    1.452   1.508   1.480   1.523   1.509   1.458   1.534   1.559   1.530   1.540   1.549   1.597   1.578   1.581   1.609   1.544   1.378   1.316   1.301   1.348   1.416   1.476   1.465   1.478   1.436   1.367   1.399   1.414   1.372   1.396   1.317
    87.60    1.453   1.501   1.530   1.467   1.464   1.464   1.508   1.544   1.520   1.538   1.451   1.491   1.497   1.548   1.561   1.489   1.400   1.349   1.307   1.401   1.460   1.494   1.501   1.557   1.494   1.498   1.374   1.423   1.278   1.303   1.277
    82.93    1.439   1.481   1.498   1.511   1.519   1.539   1.609   1.525   1.526   1.490   1.501   1.502   1.474   1.500   1.465   1.401   1.434   1.352   1.356   1.433   1.434   1.487   1.516   1.451   1.482   1.458   1.408   1.420   1.266   1.221   1.227
    78.27    1.483   1.481   1.495   1.555   1.588   1.605   1.569   1.523   1.490   1.459   1.484   1.473   1.492   1.512   1.439   1.444   1.402   1.421   1.425   1.413   1.406   1.541   1.513   1.458   1.408   1.465   1.417   1.389   1.297   1.199   1.189
    73.60    1.517   1.555   1.541   1.529   1.535   1.484   1.501   1.435   1.375   1.443   1.433   1.439   1.501   1.532   1.498   1.474   1.475   1.435   1.440   1.394   1.443   1.513   1.469   1.438   1.400   1.425   1.485   1.370   1.390   1.340   1.336
    68.93    1.482   1.513   1.540   1.487   1.518   1.492   1.462   1.394   1.350   1.399   1.452   1.427   1.441   1.553   1.529   1.459   1.437   1.464   1.468   1.372   1.419   1.397   1.416   1.347   1.354   1.325   1.371   1.409   1.435   1.431   1.416
    64.27    1.564   1.620   1.577   1.537   1.473   1.492   1.408   1.375   1.356   1.429   1.375   1.353   1.425   1.491   1.514   1.523   1.468   1.433   1.393   1.375   1.397   1.421   1.417   1.435   1.424   1.321   1.404   1.520   1.447   1.454   1.424
    59.60    1.523   1.611   1.607   1.492   1.525   1.442   1.414   1.384   1.386   1.345   1.265   1.307   1.372   1.460   1.447   1.455   1.424   1.407   1.424   1.362   1.351   1.387   1.432   1.429   1.373   1.368   1.408   1.436   1.470   1.464   1.404
    54.93    1.516   1.516   1.561   1.524   1.539   1.444   1.384   1.297   1.332   1.256   1.255   1.313   1.353   1.396   1.466   1.367   1.338   1.391   1.346   1.379   1.427   1.451   1.436   1.399   1.342   1.330   1.395   1.438   1.389   1.426   1.404
    50.27    1.517   1.586   1.516   1.517   1.442   1.436   1.362   1.306   1.315   1.262   1.251   1.288   1.368   1.419   1.369   1.329   1.269   1.346   1.389   1.378   1.379   1.382   1.399   1.328   1.290   1.293   1.292   1.349   1.333   1.364   1.434
    45.60    1.494   1.516   1.530   1.465   1.412   1.390   1.328   1.287   1.253   1.266   1.242   1.243   1.317   1.299   1.327   1.308   1.301   1.309   1.305   1.356   1.348   1.325   1.324   1.297   1.252   1.302   1.243   1.301   1.310   1.291   1.371
    40.93    1.484   1.490   1.457   1.344   1.333   1.365   1.373   1.346   1.237   1.183   1.245   1.261   1.302   1.331   1.352   1.346   1.252   1.240   1.263   1.314   1.346   1.316   1.296   1.302   1.236   1.260   1.315   1.359   1.345   1.339   1.432
    36.27    1.410   1.414   1.422   1.404   1.366   1.298   1.263   1.202   1.234   1.252   1.268   1.224   1.243   1.294   1.275   1.290   1.234   1.238   1.263   1.232   1.227   1.269   1.275   1.327   1.364   1.377   1.272   1.293   1.309   1.336   1.389
    31.60    1.443   1.440   1.390   1.375   1.375   1.328   1.253   1.238   1.208   1.263   1.281   1.309   1.308   1.309   1.300   1.322   1.241   1.239   1.238   1.176   1.172   1.189   1.219   1.355   1.370   1.365   1.300   1.338   1.318   1.310   1.353
    26.93    1.371   1.440   1.368   1.320   1.321   1.287   1.238   1.260   1.267   1.250   1.334   1.326   1.298   1.317   1.346   1.289   1.278   1.291   1.213   1.226   1.167   1.201   1.246   1.315   1.358   1.360   1.347   1.349   1.345   1.298   1.332
    22.27    1.406   1.383   1.401   1.291   1.301   1.201   1.231   1.221   1.348   1.349   1.369   1.330   1.294   1.335   1.363   1.322   1.283   1.226   1.189   1.164   1.216   1.221   1.269   1.333   1.356   1.366   1.330   1.316   1.363   1.351   1.376
    17.60    1.314   1.406   1.358   1.243   1.274   1.231   1.211   1.212   1.300   1.360   1.378   1.437   1.385   1.308   1.313   1.292   1.327   1.255   1.262   1.193   1.280   1.236   1.250   1.280   1.352   1.296   1.295   1.328   1.306   1.270   1.378

   Height   Standard deviation at grid points for the v component:
   157.60    0.889   0.880   0.869   0.860   0.884   0.868   0.899   0.860   0.814   0.844   0.920   0.952   0.975   0.961   0.908   0.920   0.862   0.860   0.854   0.879   0.865   0.833   0.834   0.874   0.862   0.869   0.869   0.852   0.885   0.870   0.854
   152.93    0.935   0.916   0.895   0.889   0.889   0.925   0.891   0.847   0.846   0.849   0.898   0.962   0.962   0.936   0.906   0.918   0.882   0.901   0.913   0.911   0.883   0.837   0.852   0.862   0.858   0.889   0.867   0.873   0.882   0.886   0.903
   148.27    0.935   0.936   0.914   0.887   0.912   0.886   0.896   0.850   0.859   0.835   0.859   0.924   0.914   0.863   0.868   0.881   0.907   0.924   0.926   0.882   0.910   0.864   0.856   0.865   0.886   0.879   0.904   0.902   0.908   0.880   0.906
   143.60    0.969   0.966   0.941   0.975   0.947   0.901   0.863   0.833   0.850   0.857   0.886   0.896   0.881   0.884   0.901   0.904   0.907   0.950   0.965   0.909   0.897   0.868   0.865   0.863   0.885   0.904   0.882   0.877   0.889   0.907   0.910
   138.93    1.018   0.976   0.966   0.947   0.925   0.905   0.886   0.847   0.791   0.854   0.897   0.904   0.869   0.871   0.879   0.885   0.904   0.900   0.976   0.925   0.894   0.921   0.895   0.873   0.874   0.916   0.900   0.908   0.902   0.930   0.952
   134.27    0.981   0.988   0.991   0.963   0.910   0.892   0.907   0.833   0.809   0.828   0.879   0.908   0.909   0.887   0.862   0.855   0.850   0.898   0.901   0.982   0.941   0.919   0.898   0.916   0.929   0.929   0.924   0.917   0.946   0.962   0.949
   129.60    0.979   0.989   0.965   0.964   0.921   0.906   0.907   0.871   0.840   0.859   0.877   0.897   0.878   0.866   0.856   0.844   0.844   0.873   0.915   0.941   0.938   0.886   0.884   0.911   0.898   0.934   0.975   0.964   0.977   0.967   0.940
   124.93    1.026   1.001   0.984   0.940   0.936   0.910   0.904   0.854   0.799   0.878   0.903   0.880   0.837   0.855   0.836   0.836   0.860   0.864   0.908   0.918   0.879   0.900   0.901   0.943   0.970   0.958   0.972   0.966   0.992   0.970   0.967
   120.27    0.992   1.002   0.997   0.975   0.940   0.924   0.906   0.846   0.838   0.842   0.875   0.879   0.848   0.819   0.845   0.834   0.826   0.864   0.848   0.822   0.867   0.863   0.904   0.942   0.950   0.971   0.958   0.948   0.990   1.009   0.997
   115.60    0.964   1.013   1.020   0.967   0.950   0.942   0.897   0.869   0.873   0.888   0.899   0.906   0.873   0.812   0.833   0.838   0.840   0.849   0.840   0.898   0.901   0.925   0.912   0.906   0.922   0.937   0.955   0.961   0.962   0.955   0.972
   110.93    0.981   1.024   1.010   1.019   0.981   0.998   0.922   0.896   0.914   0.928   0.885   0.895   0.869   0.821   0.841   0.811   0.843   0.844   0.867   0.891   0.916   0.899   0.888   0.914   0.905   0.893   0.943   0.953   0.945   0.944   0.983
   106.27    0.975   0.972   0.987   0.997   1.003   0.966   0.948   0.950   0.920   0.945   0.916   0.881   0.880   0.807   0.810   0.815   0.853   0.842   0.848   0.894   0.887   0.898   0.928   0.942   0.922   0.893   0.892   0.934   0.913   0.981   0.981
   101.60    0.927   0.938   0.978   0.957   0.954   1.008   0.981   0.955   0.940   0.961   0.908   0.865   0.871   0.800   0.814   0.884   0.898   0.883   0.885   0.905   0.898   0.904   0.897   0.920   0.906   0.903   0.913   0.943   0.969   0.994   1.020
    96.93    0.950   0.929   0.959   0.933   0.954   1.005   0.930   0.931   0.897   0.931   0.967   0.900   0.872   0.856   0.855   0.883   0.893   0.895   0.894   0.910   0.901   0.892   0.869   0.903   0.907   0.951   0.947   0.994   0.991   1.012   1.037
    92.27    0.958   0.960   0.893   0.911   0.941   0.926   0.970   0.940   0.919   0.978   0.961   0.948   0.908   0.886   0.873   0.876   0.866   0.913   0.883   0.890   0.895   0.915   0.887   0.894   0.887   0.904   0.907   0.971   1.008   1.002   1.016
    87.60    0.997   0.984   0.921   0.922   0.943   0.923   0.947   0.957   0.899   0.937   0.918   0.939   0.940   0.953   0.911   0.846   0.879   0.902   0.876   0.891   0.895   0.911   0.934   0.917   0.881   0.888   0.924   0.994   1.012   1.010   1.026
    82.93    1.045   0.959   0.971   0.961   0.950   0.935   0.923   0.934   0.945   0.896   0.926   0.900   0.937   0.942   0.940   0.907   0.924   0.909   0.888   0.890   0.889   0.879   0.924   0.929   0.886   0.900   0.940   0.976   1.003   1.034   1.044
    78.27    1.024   1.025   1.003   0.996   0.949   0.935   0.957   0.900   0.924   0.908   0.915   0.899   0.921   0.927   0.939   0.932   0.943   0.930   0.912   0.914   0.895   0.905   0.924   0.913   0.900   0.922   0.982   0.985   1.003   1.039   1.061
    73.60    1.004   0.992   1.035   1.039   0.953   0.936   0.943   0.959   0.929   0.912   0.931   0.941   0.928   0.909   0.935   0.929   0.927   0.902   0.908   0.924   0.918   0.914   0.939   0.936   0.914   0.930   0.985   0.989   0.995   1.033   1.061
    68.93    1.016   1.047   1.003   1.004   0.953   0.956   0.892   0.963   0.968   0.932   0.969   0.947   0.947   0.916   0.919   0.907   0.918   0.906   0.924   0.919   0.931   0.941   0.950   0.965   0.973   0.926   0.972   0.988   1.030   1.034   1.059
    64.27    1.029   1.037   0.999   0.953   0.946   0.962   0.952   0.960   1.000   0.950   0.938   0.964   0.946   0.909   0.917   0.932   0.932   0.944   0.915   0.922   0.957   0.973   0.940   0.904   0.941   0.959   0.966   1.021   1.006   1.044   1.051
    59.60    1.022   1.010   0.964   0.954   0.954   0.956   0.926   0.958   1.001   0.961   0.958   0.983   0.942   0.933   0.948   0.955   0.959   0.942   0.947   0.936   0.949   0.970   0.981   0.970   0.935   0.974   0.972   1.008   1.071   1.060   1.087
    54.93    1.008   1.028   0.994   0.949   0.922   0.957   0.925   0.961   0.958   0.946   0.951   0.935   0.914   0.917   0.949   0.957   0.947   0.923   0.943   0.942   0.961   0.966   0.985   0.954   0.955   0.952   0.942   0.998   1.004   1.024   1.070
    50.27    0.966   0.993   0.981   0.930   0.903   0.921   0.909   0.925   0.920   0.951   0.899   0.924   0.917   0.907   0.961   0.969   0.951   0.915   0.925   0.917   0.930   0.956   0.948   0.955   0.955   0.944   0.961   0.952   1.006   1.012   1.034
    45.60    0.987   0.948   0.951   0.925   0.916   0.917   0.931   0.910   0.906   0.909   0.914   0.918   0.886   0.914   0.949   0.981   0.949   0.920   0.909   0.911   0.916   0.945   0.926   0.967   0.944   0.960   0.948   0.989   1.011   1.036   1.011
    40.93    0.965   0.948   0.920   0.927   0.955   0.945   0.977   0.917   0.955   0.941   0.916   0.928   0.926   0.921   0.969   0.948   0.963   0.898   0.886   0.912   0.937   0.951   0.957   0.952   0.934   0.928   0.971   0.965   0.979   1.004   1.041
    36.27    0.972   0.978   0.952   0.956   0.909   0.930   0.987   0.955   0.973   0.923   0.956   0.950   0.949   0.951   0.977   0.938   0.930   0.932   0.905   0.930   0.891   0.947   0.957   0.951   0.942   0.925   0.997   1.013   1.012   0.988   1.003
    31.60    0.975   0.969   0.971   0.925   0.935   0.934   0.965   0.951   0.972   0.969   0.997   0.997   1.003   0.972   0.987   0.968   0.964   0.951   0.901   0.934   0.954   0.943   0.949   0.974   0.957   0.940   0.968   1.031   1.027   1.022   1.022
    26.93    0.981   0.966   0.962   0.980   0.963   0.989   0.991   0.988   1.013   1.012   1.024   1.028   0.991   1.005   0.968   0.950   0.975   0.964   0.958   0.952   0.982   0.989   0.990   0.977   0.992   0.976   0.967   0.995   1.023   1.048   1.024
    22.27    0.997   0.979   0.976   1.005   0.999   0.993   1.026   1.023   1.016   1.034   1.028   1.011   0.961   0.950   0.963   0.970   0.966   0.952   1.005   0.986   0.976   1.030   1.016   1.029   1.027   1.004   1.001   1.004   1.022   1.043   1.030
    17.60    0.999   0.983   1.017   1.017   1.029   1.006   1.029   0.990   1.011   0.984   0.993   1.001   0.957   0.976   0.992   1.007   0.977   0.997   0.990   0.998   1.011   1.038   1.035   1.023   1.009   1.009   0.994   1.018   1.023   1.010   1.030

   Height   Standard deviation at grid points for the w component:
   157.60    0.866   0.857   0.883   0.864   0.890   0.866   0.842   0.853   0.849   0.846   0.795   0.812   0.796   0.805   0.832   0.808   0.841   0.807   0.811   0.824   0.819   0.822   0.827   0.828   0.814   0.827   0.809   0.791   0.796   0.787   0.775
   152.93    0.855   0.846   0.837   0.835   0.858   0.854   0.844   0.859   0.827   0.830   0.806   0.783   0.806   0.814   0.820   0.795   0.798   0.808   0.805   0.819   0.800   0.811   0.806   0.813   0.797   0.761   0.791   0.764   0.767   0.783   0.776
   148.27    0.851   0.826   0.835   0.834   0.836   0.832   0.840   0.857   0.851   0.826   0.809   0.812   0.821   0.845   0.818   0.793   0.768   0.750   0.786   0.790   0.776   0.788   0.813   0.800   0.785   0.773   0.788   0.777   0.765   0.784   0.769
   143.60    0.824   0.826   0.823   0.842   0.823   0.856   0.838   0.849   0.849   0.831   0.844   0.809   0.839   0.853   0.818   0.821   0.807   0.789   0.782   0.772   0.767   0.808   0.794   0.795   0.770   0.779   0.790   0.781   0.770   0.769   0.743
   138.93    0.831   0.819   0.810   0.833   0.825   0.868   0.873   0.883   0.883   0.863   0.860   0.841   0.817   0.841   0.843   0.843   0.856   0.833   0.791   0.785   0.760   0.779   0.779   0.761   0.755   0.747   0.756   0.763   0.739   0.745   0.730
   134.27    0.812   0.844   0.848   0.851   0.854   0.860   0.858   0.889   0.908   0.868   0.877   0.881   0.846   0.825   0.859   0.869   0.830   0.850   0.823   0.803   0.776   0.783   0.738   0.772   0.767   0.754   0.756   0.748   0.737   0.747   0.741
   129.60    0.842   0.859   0.865   0.865   0.852   0.884   0.891   0.860   0.909   0.904   0.857   0.856   0.847   0.811   0.811   0.851   0.846   0.873   0.837   0.837   0.801   0.755   0.760   0.770   0.782   0.759   0.723   0.751   0.764   0.758   0.768
   124.93    0.831   0.860   0.855   0.840   0.848   0.852   0.879   0.864   0.887   0.882   0.872   0.851   0.828   0.836   0.831   0.879   0.899   0.879   0.836   0.825   0.813   0.773   0.779   0.784   0.786   0.742   0.733   0.740   0.765   0.749   0.748
   120.27    0.832   0.834   0.835   0.844   0.853   0.845   0.856   0.848   0.842   0.868   0.856   0.843   0.823   0.840   0.835   0.870   0.902   0.872   0.833   0.833   0.803   0.784   0.796   0.787   0.776   0.771   0.744   0.724   0.728   0.744   0.746
   115.60    0.803   0.831   0.820   0.812   0.852   0.857   0.822   0.830   0.838   0.847   0.840   0.831   0.805   0.845   0.836   0.873   0.880   0.849   0.848   0.839   0.807   0.823   0.822   0.800   0.753   0.751   0.762   0.754   0.769   0.753   0.749
   110.93    0.823   0.797   0.835   0.831   0.847   0.831   0.852   0.846   0.865   0.871   0.874   0.847   0.839   0.857   0.849   0.853   0.846   0.822   0.823   0.795   0.801   0.780   0.777   0.826   0.807   0.780   0.793   0.774   0.757   0.765   0.781
   106.27    0.800   0.826   0.830   0.828   0.824   0.831   0.847   0.845   0.857   0.869   0.866   0.857   0.855   0.875   0.884   0.879   0.860   0.855   0.810   0.790   0.798   0.782   0.775   0.776   0.815   0.816   0.799   0.762   0.753   0.756   0.758
   101.60    0.835   0.824   0.827   0.836   0.835   0.814   0.818   0.815   0.861   0.848   0.862   0.828   0.832   0.845   0.867   0.868   0.857   0.859   0.839   0.828   0.782   0.764   0.787   0.796   0.800   0.815   0.803   0.750   0.733   0.750   0.760
    96.93    0.821   0.847   0.815   0.833   0.838   0.821   0.813   0.840   0.844   0.835   0.827   0.849   0.827   0.844   0.844   0.865   0.872   0.860   0.823   0.815   0.788   0.774   0.791   0.808   0.790   0.796   0.794   0.763   0.740   0.760   0.765
    92.27    0.829   0.809   0.824   0.811   0.842   0.802   0.809   0.809   0.842   0.806   0.831   0.857   0.832   0.848   0.855   0.842   0.846   0.867   0.835   0.821   0.797   0.796   0.797   0.837   0.825   0.789   0.765   0.753   0.752   0.760   0.754
    87.60    0.836   0.805   0.794   0.806   0.811   0.817   0.842   0.834   0.821   0.822   0.807   0.823   0.801   0.839   0.855   0.802   0.819   0.823   0.796   0.803   0.795   0.826   0.818   0.811   0.778   0.757   0.733   0.739   0.739   0.757   0.792
    82.93    0.820   0.801   0.804   0.809   0.822   0.834   0.850   0.819   0.823   0.807   0.772   0.790   0.784   0.836   0.821   0.788   0.800   0.763   0.785   0.796   0.796   0.822   0.841   0.799   0.788   0.759   0.738   0.748   0.743   0.758   0.778
    78.27    0.791   0.827   0.812   0.826   0.832   0.851   0.840   0.832   0.825   0.817   0.797   0.776   0.794   0.816   0.828   0.790   0.782   0.778   0.779   0.782   0.798   0.807   0.824   0.810   0.817   0.762   0.757   0.747   0.732   0.745   0.781
    73.60    0.802   0.811   0.846   0.823   0.826   0.840   0.815   0.827   0.822   0.809   0.783   0.757   0.787   0.808   0.803   0.806   0.795   0.797   0.773   0.787   0.795   0.799   0.819   0.780   0.786   0.773   0.755   0.740   0.747   0.758   0.761
    68.93    0.839   0.834   0.820   0.816   0.826   0.813   0.821   0.820   0.794   0.791   0.784   0.766   0.780   0.793   0.788   0.797   0.777   0.767   0.782   0.776   0.809   0.810   0.816   0.784   0.782   0.783   0.758   0.760   0.750   0.737   0.774
    64.27    0.825   0.843   0.832   0.819   0.820   0.818   0.822   0.839   0.845   0.797   0.778   0.781   0.790   0.812   0.806   0.793   0.772   0.796   0.794   0.794   0.799   0.827   0.827   0.816   0.814   0.779   0.798   0.768   0.774   0.777   0.764
    59.60    0.830   0.811   0.832   0.830   0.840   0.835   0.834   0.830   0.817   0.779   0.755   0.794   0.819   0.821   0.804   0.798   0.797   0.790   0.781   0.795   0.830   0.826   0.826   0.825   0.825   0.798   0.790   0.795   0.791   0.759   0.777
    54.93    0.822   0.790   0.830   0.797   0.823   0.830   0.826   0.821   0.802   0.792   0.780   0.789   0.810   0.793   0.815   0.814   0.810   0.792   0.786   0.813   0.835   0.856   0.835   0.832   0.790   0.792   0.800   0.774   0.764   0.774   0.791
    50.27    0.832   0.807   0.791   0.789   0.791   0.794   0.807   0.820   0.815   0.810   0.779   0.796   0.791   0.793   0.797   0.825   0.835   0.810   0.811   0.819   0.802   0.817   0.828   0.794   0.802   0.788   0.775   0.790   0.797   0.806   0.727
    45.60    0.790   0.791   0.798   0.795   0.780   0.790   0.766   0.786   0.787   0.794   0.805   0.792   0.778   0.773   0.776   0.787   0.822   0.838   0.840   0.831   0.808   0.788   0.791   0.796   0.787   0.796   0.793   0.782   0.773   0.801   0.792
    40.93    0.797   0.782   0.803   0.798   0.799   0.813   0.793   0.796   0.788   0.817   0.802   0.822   0.795   0.771   0.773   0.791   0.825   0.831   0.816   0.815   0.795   0.813   0.794   0.784   0.793   0.775   0.795   0.789   0.791   0.773   0.792
    36.27    0.793   0.807   0.799   0.804   0.826   0.804   0.793   0.810   0.813   0.801   0.819   0.812   0.809   0.794   0.817   0.813   0.809   0.815   0.813   0.792   0.803   0.794   0.786   0.795   0.780   0.770   0.806   0.773   0.755   0.774   0.769
    31.60    0.777   0.767   0.800   0.805   0.823   0.805   0.790   0.784   0.795   0.801   0.795   0.822   0.815   0.810   0.798   0.793   0.792   0.818   0.786   0.812   0.817   0.796   0.795   0.799   0.789   0.781   0.780   0.774   0.815   0.777   0.772
    26.93    0.790   0.794   0.808   0.792   0.792   0.802   0.806   0.802   0.808   0.793   0.802   0.819   0.809   0.787   0.791   0.796   0.799   0.778   0.795   0.802   0.808   0.811   0.801   0.778   0.797   0.779   0.783   0.803   0.815   0.779   0.776
    22.27    0.791   0.784   0.792   0.809   0.789   0.783   0.794   0.791   0.811   0.807   0.789   0.806   0.804   0.808   0.788   0.802   0.783   0.780   0.792   0.818   0.797   0.787   0.785   0.796   0.768   0.778   0.781   0.803   0.824   0.771   0.788
    17.60    0.785   0.777   0.789   0.781   0.787   0.781   0.788   0.786   0.792   0.798   0.794   0.804   0.793   0.789   0.790   0.790   0.793   0.793   0.791   0.775   0.779   0.786   0.773   0.782   0.799   0.795   0.776   0.797   0.802   0.765   0.765

   Mean standard deviation across all grid points:
      u component:    1.393 m/s
      v component:    0.936 m/s
      w component:    0.807 m/s


U-component (X) statistics from the hub grid point:

   Mean =  11.9537 m/s
   TI   =  12.4586 %

Nyquist frequency of turbulent wind field =        10.000 Hz


Processing complete.  330.02 CPU seconds used.
