
This summary file was generated by TurbSim (v1.06.00, 21-Sep-2012) on 13-Sep-2020 at 15:27:13.


Runtime Options:

  65432154  Random seed #1
    RANLUX  Type of random number generator
         F  Output binary HH turbulence parameters?
         F  Output formatted turbulence parameters?
         F  Output AeroDyn HH files?
         T  Output AeroDyn FF files?
         F  Output BLADED FF files?
         T  Output tower data?
         F  Output formatted FF files?
         F  Output coherent turbulence time step file?
         T  Clockwise rotation when looking downwind?
 0 -  NONE  IEC turbulence models scaled to exact specified standard deviation


Turbine/Model Specifications:

        33  Vertical grid-point matrix dimension
        33  Horizontal grid-point matrix dimension
     0.050  Time step [seconds]
    70.000  Analysis time [seconds]
    70.000  Usable output time [seconds]
    87.600  Hub height [m]
   130.000  Grid height [m]
   130.000  Grid width [m]
     0.000  Vertical flow angle [degrees]
     0.000  Horizontal flow angle [degrees]


Meteorological Boundary Conditions:

    SMOOTH  RISO Smooth Terrain spectral model
       N/A  IEC standard
       N/A  IEC turbulence characteristic
       N/A  IEC turbulence type
       N/A  IEC Extreme Turbulence Model (ETM) "c" parameter [m/s]
       IEC  Wind profile type
    87.600  Reference height [m]
     7.000  Reference wind speed [m/s]
       N/A  Jet height [m]
     0.143  Power law exponent
     0.010  Surface roughness length [m]


Non-IEC Meteorological Boundary Conditions:

    45.000  Site latitude [degrees]
     0.050  Gradient Richardson number
     0.298  Friction or shear velocity [m/s]
       N/A  Mixing layer depth [m]
    -0.089  Mean hub u'w' Reynolds stress
       N/A  Mean hub u'v' Reynolds stress
       N/A  Mean hub v'w' Reynolds stress
(    7.000,  0.00    )  u-component coherence parameters
(    5.250,  0.00    )  v-component coherence parameters
(    5.250,  0.00    )  w-component coherence parameters
     0.000  Coherence exponent


You have requested that the following file(s) be generated:

   unsteady_tmp_7.bts (AeroDyn/TurbSim full-field wind file)


Turbulence Simulation Scaling Parameter Summary:

   Turbulence model used                            =  RISO Smooth Terrain
   Gradient Richardson number                       =    0.050
   Monin-Obukhov (M-O) z/L parameter                =    0.067
   Monin-Obukhov (M-O) length scale                 = 1314.000 m
   Mean wind speed at hub height                    =    7.000 m/s

   Wind profile type                                =  Power law on rotor disk, logarithmic elsewhere
   Power law exponent                               =    0.143
   Mean shear across rotor disk                     =    0.013 (m/s)/m
   Assumed rotor diameter                           =  130.000 m
   Surface roughness length                         =    0.010 m

   Number of time steps in the FFT                  =     1792
   Number of time steps output                      =     1772


Mean Flow Angles:

   Vertical   =   0.0 degrees
   Horizontal =   0.0 degrees

Mean Wind Speed Profile:

   Height    Wind Speed   Horizontal Angle  U-comp (X)   V-comp (Y)   W-comp (Z)
     (m)        (m/s)         (degrees)       (m/s)        (m/s)        (m/s)   
   ------    ----------   ----------------  ----------   ----------   ----------
    152.6        7.43            0.00          7.43         0.00         0.00
    148.5        7.55            0.00          7.55         0.00         0.00
    144.5        7.52            0.00          7.52         0.00         0.00
    140.4        7.49            0.00          7.49         0.00         0.00
    136.4        7.46            0.00          7.46         0.00         0.00
    132.3        7.43            0.00          7.43         0.00         0.00
    128.2        7.39            0.00          7.39         0.00         0.00
    124.2        7.36            0.00          7.36         0.00         0.00
    120.1        7.32            0.00          7.32         0.00         0.00
    116.0        7.29            0.00          7.29         0.00         0.00
    112.0        7.25            0.00          7.25         0.00         0.00
    107.9        7.21            0.00          7.21         0.00         0.00
    103.9        7.17            0.00          7.17         0.00         0.00
     99.8        7.13            0.00          7.13         0.00         0.00
     95.7        7.09            0.00          7.09         0.00         0.00
     91.7        7.05            0.00          7.05         0.00         0.00
     87.6        7.00            0.00          7.00         0.00         0.00
     83.5        6.95            0.00          6.95         0.00         0.00
     79.5        6.90            0.00          6.90         0.00         0.00
     75.4        6.85            0.00          6.85         0.00         0.00
     71.4        6.80            0.00          6.80         0.00         0.00
     67.3        6.74            0.00          6.74         0.00         0.00
     63.2        6.68            0.00          6.68         0.00         0.00
     59.2        6.62            0.00          6.62         0.00         0.00
     55.1        6.55            0.00          6.55         0.00         0.00
     51.0        6.48            0.00          6.48         0.00         0.00
     47.0        6.40            0.00          6.40         0.00         0.00
     42.9        6.32            0.00          6.32         0.00         0.00
     38.9        6.23            0.00          6.23         0.00         0.00
     34.8        6.13            0.00          6.13         0.00         0.00
     30.7        6.03            0.00          6.03         0.00         0.00
     26.7        5.91            0.00          5.91         0.00         0.00
     22.6        5.77            0.00          5.77         0.00         0.00
     18.5        5.80            0.00          5.80         0.00         0.00
     14.5        5.61            0.00          5.61         0.00         0.00
     10.4        5.36            0.00          5.36         0.00         0.00
      6.4        4.98            0.00          4.98         0.00         0.00
      2.3        4.19            0.00          4.19         0.00         0.00


Harvested Random Seeds after Generation of the Random Numbers:

     27323744 K1
            0 K2


Scaling statistics from the hub grid point:

   Cross-Component  Scaling Factor
   ---------------  --------------
   u'w'               -0.38910E+00
   u'v'                0.00000E+00
   v'w'                0.00000E+00


Hub-Height Simulated Turbulence Statistical Summary:

   Type of Wind        Min (m/s)   Mean (m/s)    Max (m/s)  Sigma (m/s)       TI (%)
   ----------------    ---------   ----------    ---------  -----------       ------
   Longitudinal (u)         5.85         7.00         8.11        0.445        6.351
   Lateral (v)             -1.27         0.00         1.45        0.554        7.910
   Vertical (w)            -1.20         0.00         1.55        0.466        6.661
   U component              5.85         7.00         8.11        0.445        6.351
   V component             -1.27         0.00         1.45        0.554        7.910
   W component             -1.20         0.00         1.55        0.466        6.661
   Horizontal (U&V)         5.86         7.02         8.11        0.445        6.340
   Total                    5.93         7.04         8.14        0.443        6.297

                       Min Reynolds     Mean Reynolds    Max Reynolds    Correlation
   Product             Stress (m/s)^2   Stress (m/s)^2   Stress (m/s)^2  Coefficient
   ----------------    --------------   --------------   --------------  -----------
   u'w'                     -1.467            -0.089             0.377        -0.427
   u'v'                     -0.589             0.123             1.211         0.500
   v'w'                     -1.002            -0.062             0.937        -0.238


   Friction Velocity (Ustar)  =      0.298 m/s
   Maximum Instantaneous TKE  =      1.649 (m/s)^2
   Maximum Instantaneous CTKE =      0.942 (m/s)^2


Grid Point Variance Summary:

   Y-coord  -65.00  -60.94  -56.88  -52.81  -48.75  -44.69  -40.62  -36.56  -32.50  -28.44  -24.38  -20.31  -16.25  -12.19   -8.12   -4.06    0.00    4.06    8.12   12.19   16.25   20.31   24.38   28.44   32.50   36.56   40.62   44.69   48.75   52.81   56.88   60.94   65.00

   Height   Standard deviation at grid points for the u component:
   152.60    0.425   0.441   0.443   0.452   0.529   0.523   0.586   0.559   0.564   0.593   0.560   0.501   0.472   0.530   0.437   0.498   0.428   0.373   0.418   0.399   0.441   0.414   0.454   0.395   0.406   0.414   0.466   0.477   0.475   0.479   0.462   0.419   0.394
   148.54    0.465   0.552   0.543   0.600   0.561   0.500   0.582   0.541   0.591   0.543   0.450   0.518   0.593   0.597   0.466   0.484   0.398   0.396   0.354   0.355   0.402   0.357   0.380   0.355   0.423   0.456   0.493   0.535   0.475   0.474   0.463   0.471   0.440
   144.48    0.475   0.580   0.576   0.583   0.556   0.516   0.595   0.616   0.625   0.621   0.586   0.508   0.601   0.535   0.518   0.502   0.437   0.361   0.351   0.341   0.353   0.383   0.343   0.351   0.406   0.441   0.464   0.479   0.420   0.411   0.449   0.465   0.415
   140.41    0.496   0.561   0.669   0.673   0.608   0.602   0.519   0.599   0.614   0.542   0.574   0.560   0.592   0.536   0.519   0.497   0.515   0.479   0.320   0.353   0.347   0.323   0.322   0.327   0.335   0.404   0.444   0.478   0.455   0.414   0.449   0.458   0.531
   136.35    0.487   0.502   0.612   0.687   0.628   0.575   0.535   0.534   0.520   0.548   0.514   0.562   0.615   0.543   0.506   0.489   0.431   0.392   0.324   0.325   0.299   0.347   0.345   0.281   0.292   0.376   0.430   0.361   0.463   0.484   0.465   0.463   0.516
   132.29    0.535   0.605   0.590   0.693   0.699   0.627   0.599   0.550   0.633   0.517   0.443   0.470   0.545   0.597   0.547   0.567   0.447   0.341   0.318   0.305   0.291   0.333   0.392   0.331   0.357   0.395   0.384   0.422   0.436   0.454   0.425   0.383   0.440
   128.23    0.546   0.603   0.649   0.690   0.652   0.663   0.620   0.668   0.641   0.628   0.532   0.488   0.482   0.558   0.580   0.541   0.553   0.442   0.341   0.313   0.341   0.320   0.368   0.389   0.411   0.409   0.390   0.383   0.393   0.394   0.407   0.397   0.467
   124.16    0.608   0.635   0.701   0.617   0.633   0.728   0.675   0.738   0.645   0.548   0.519   0.451   0.496   0.547   0.508   0.482   0.485   0.400   0.355   0.363   0.377   0.323   0.370   0.412   0.410   0.368   0.398   0.391   0.368   0.468   0.366   0.359   0.433
   120.10    0.543   0.562   0.626   0.687   0.716   0.659   0.673   0.682   0.685   0.578   0.527   0.526   0.542   0.541   0.588   0.488   0.472   0.457   0.339   0.366   0.319   0.385   0.335   0.355   0.322   0.343   0.321   0.342   0.371   0.411   0.363   0.341   0.403
   116.04    0.516   0.476   0.561   0.694   0.606   0.599   0.555   0.559   0.574   0.558   0.628   0.525   0.510   0.477   0.533   0.469   0.483   0.432   0.405   0.389   0.293   0.361   0.310   0.320   0.305   0.350   0.283   0.345   0.362   0.434   0.395   0.487   0.501
   111.98    0.423   0.581   0.570   0.673   0.663   0.572   0.524   0.481   0.466   0.564   0.562   0.604   0.570   0.468   0.493   0.528   0.458   0.462   0.422   0.443   0.407   0.351   0.341   0.313   0.337   0.365   0.367   0.397   0.411   0.454   0.443   0.551   0.589
   107.91    0.494   0.542   0.572   0.602   0.631   0.601   0.600   0.538   0.615   0.583   0.557   0.592   0.528   0.592   0.478   0.431   0.407   0.452   0.430   0.424   0.398   0.371   0.268   0.350   0.311   0.350   0.335   0.351   0.363   0.413   0.495   0.511   0.556
   103.85    0.447   0.467   0.482   0.496   0.526   0.558   0.522   0.550   0.632   0.597   0.563   0.506   0.522   0.564   0.520   0.414   0.392   0.382   0.396   0.442   0.450   0.395   0.345   0.326   0.293   0.300   0.375   0.362   0.437   0.496   0.496   0.530   0.537
    99.79    0.395   0.444   0.454   0.531   0.543   0.485   0.512   0.594   0.570   0.603   0.542   0.413   0.425   0.491   0.434   0.461   0.412   0.407   0.418   0.414   0.407   0.417   0.396   0.278   0.276   0.318   0.333   0.366   0.419   0.514   0.540   0.543   0.495
    95.73    0.417   0.452   0.435   0.415   0.459   0.493   0.515   0.549   0.569   0.642   0.552   0.502   0.479   0.538   0.506   0.450   0.510   0.463   0.471   0.420   0.407   0.386   0.365   0.334   0.312   0.352   0.375   0.368   0.470   0.553   0.548   0.439   0.436
    91.66    0.372   0.397   0.413   0.336   0.369   0.436   0.478   0.516   0.587   0.668   0.677   0.609   0.558   0.511   0.422   0.394   0.447   0.433   0.462   0.422   0.371   0.355   0.354   0.329   0.349   0.371   0.381   0.362   0.397   0.485   0.526   0.524   0.521
    87.60    0.398   0.386   0.385   0.353   0.400   0.443   0.512   0.576   0.576   0.619   0.670   0.557   0.578   0.494   0.430   0.386   0.445   0.474   0.480   0.441   0.393   0.372   0.367   0.387   0.371   0.375   0.423   0.388   0.392   0.428   0.473   0.522   0.525
    83.54    0.359   0.408   0.346   0.335   0.332   0.458   0.545   0.560   0.592   0.606   0.660   0.585   0.497   0.518   0.519   0.474   0.488   0.441   0.399   0.421   0.388   0.397   0.395   0.350   0.366   0.374   0.377   0.433   0.464   0.479   0.497   0.497   0.520
    79.48    0.410   0.394   0.381   0.327   0.359   0.466   0.441   0.602   0.670   0.741   0.756   0.581   0.557   0.550   0.506   0.482   0.499   0.492   0.511   0.452   0.448   0.459   0.389   0.432   0.392   0.348   0.351   0.429   0.442   0.545   0.598   0.588   0.552
    75.41    0.455   0.557   0.475   0.440   0.427   0.531   0.568   0.531   0.610   0.737   0.749   0.658   0.612   0.604   0.560   0.434   0.425   0.498   0.483   0.395   0.407   0.444   0.391   0.461   0.387   0.358   0.346   0.465   0.493   0.539   0.571   0.561   0.539
    71.35    0.636   0.539   0.543   0.509   0.507   0.497   0.537   0.558   0.628   0.660   0.658   0.694   0.585   0.573   0.523   0.478   0.382   0.435   0.439   0.372   0.391   0.359   0.396   0.413   0.446   0.455   0.418   0.477   0.474   0.504   0.480   0.444   0.506
    67.29    0.534   0.602   0.529   0.573   0.503   0.553   0.522   0.499   0.605   0.613   0.564   0.564   0.640   0.589   0.510   0.458   0.488   0.444   0.436   0.384   0.355   0.340   0.334   0.394   0.396   0.456   0.453   0.505   0.479   0.500   0.452   0.487   0.550
    63.23    0.626   0.607   0.545   0.495   0.563   0.668   0.577   0.525   0.648   0.687   0.616   0.566   0.542   0.534   0.530   0.536   0.535   0.516   0.468   0.382   0.363   0.387   0.339   0.422   0.414   0.495   0.581   0.593   0.624   0.540   0.532   0.587   0.494
    59.16    0.654   0.655   0.573   0.524   0.611   0.665   0.643   0.566   0.618   0.633   0.708   0.689   0.554   0.559   0.616   0.566   0.482   0.485   0.465   0.441   0.479   0.500   0.462   0.409   0.529   0.550   0.542   0.577   0.522   0.619   0.670   0.617   0.632
    55.10    0.531   0.603   0.521   0.523   0.542   0.625   0.608   0.654   0.606   0.604   0.607   0.641   0.592   0.543   0.575   0.493   0.539   0.496   0.508   0.528   0.529   0.495   0.422   0.466   0.561   0.504   0.565   0.566   0.607   0.595   0.670   0.625   0.676
    51.04    0.553   0.540   0.496   0.425   0.535   0.577   0.590   0.606   0.602   0.577   0.610   0.656   0.654   0.571   0.553   0.501   0.471   0.498   0.459   0.461   0.470   0.479   0.431   0.505   0.638   0.615   0.596   0.636   0.623   0.611   0.573   0.728   0.712
    46.98    0.530   0.565   0.584   0.559   0.519   0.560   0.598   0.472   0.497   0.554   0.571   0.668   0.642   0.582   0.498   0.462   0.481   0.458   0.452   0.443   0.479   0.451   0.518   0.559   0.540   0.629   0.605   0.619   0.631   0.714   0.735   0.710   0.761
    42.91    0.512   0.558   0.558   0.438   0.524   0.550   0.522   0.529   0.562   0.458   0.544   0.612   0.566   0.523   0.571   0.541   0.569   0.490   0.492   0.535   0.549   0.524   0.571   0.590   0.682   0.664   0.574   0.553   0.662   0.682   0.741   0.749   0.794
    38.85    0.496   0.519   0.510   0.475   0.513   0.506   0.459   0.490   0.487   0.525   0.555   0.558   0.502   0.461   0.530   0.611   0.595   0.494   0.525   0.536   0.527   0.508   0.531   0.608   0.602   0.670   0.629   0.547   0.606   0.748   0.746   0.818   0.773
    34.79    0.615   0.636   0.566   0.527   0.507   0.477   0.420   0.450   0.462   0.549   0.582   0.592   0.594   0.518   0.512   0.531   0.630   0.548   0.570   0.660   0.602   0.595   0.632   0.662   0.607   0.584   0.625   0.636   0.587   0.681   0.795   0.857   0.763
    30.73    0.706   0.699   0.578   0.509   0.429   0.445   0.371   0.406   0.452   0.524   0.569   0.665   0.557   0.592   0.514   0.630   0.695   0.547   0.607   0.555   0.570   0.487   0.639   0.601   0.556   0.600   0.660   0.800   0.716   0.689   0.828   0.767   0.656
    26.66    0.785   0.717   0.642   0.530   0.508   0.426   0.421   0.420   0.470   0.489   0.546   0.641   0.678   0.594   0.568   0.625   0.647   0.527   0.622   0.588   0.496   0.538   0.650   0.615   0.483   0.602   0.624   0.720   0.749   0.754   0.811   0.847   0.683
    22.60    0.682   0.738   0.675   0.576   0.493   0.448   0.417   0.436   0.522   0.448   0.406   0.557   0.631   0.732   0.649   0.681   0.712   0.630   0.654   0.617   0.684   0.634   0.685   0.658   0.535   0.471   0.576   0.695   0.801   0.795   0.830   0.754   0.802

   Height   Standard deviation at grid points for the v component:
   152.60    0.554   0.488   0.468   0.435   0.459   0.479   0.384   0.448   0.497   0.527   0.492   0.523   0.590   0.565   0.494   0.477   0.386   0.403   0.436   0.408   0.402   0.368   0.352   0.476   0.514   0.514   0.514   0.547   0.523   0.449   0.460   0.514   0.494
   148.54    0.517   0.492   0.502   0.447   0.447   0.454   0.439   0.427   0.508   0.497   0.516   0.538   0.575   0.624   0.570   0.525   0.494   0.489   0.470   0.418   0.413   0.427   0.422   0.475   0.547   0.505   0.520   0.553   0.518   0.423   0.439   0.430   0.422
   144.48    0.580   0.536   0.537   0.511   0.475   0.536   0.516   0.516   0.467   0.463   0.458   0.473   0.507   0.568   0.592   0.564   0.546   0.546   0.444   0.472   0.468   0.441   0.462   0.449   0.497   0.503   0.526   0.510   0.530   0.484   0.442   0.490   0.452
   140.41    0.549   0.516   0.600   0.537   0.558   0.560   0.542   0.514   0.488   0.463   0.466   0.438   0.450   0.481   0.540   0.554   0.572   0.531   0.447   0.395   0.420   0.448   0.462   0.509   0.541   0.552   0.486   0.447   0.475   0.461   0.406   0.406   0.476
   136.35    0.570   0.631   0.655   0.577   0.560   0.482   0.496   0.462   0.473   0.454   0.439   0.425   0.455   0.443   0.469   0.508   0.473   0.410   0.417   0.436   0.448   0.430   0.461   0.423   0.485   0.457   0.483   0.515   0.514   0.433   0.449   0.369   0.403
   132.29    0.511   0.585   0.597   0.580   0.541   0.478   0.500   0.463   0.501   0.444   0.436   0.383   0.382   0.403   0.435   0.454   0.391   0.361   0.444   0.448   0.472   0.461   0.410   0.469   0.469   0.460   0.509   0.538   0.473   0.472   0.392   0.414   0.470
   128.23    0.557   0.567   0.535   0.527   0.493   0.517   0.501   0.451   0.495   0.472   0.428   0.367   0.294   0.350   0.370   0.425   0.370   0.376   0.462   0.512   0.554   0.503   0.435   0.436   0.481   0.504   0.489   0.540   0.505   0.440   0.447   0.445   0.439
   124.16    0.540   0.560   0.608   0.582   0.547   0.526   0.575   0.515   0.470   0.452   0.493   0.428   0.345   0.390   0.392   0.413   0.416   0.452   0.491   0.534   0.561   0.579   0.535   0.419   0.500   0.528   0.482   0.478   0.471   0.442   0.453   0.467   0.469
   120.10    0.634   0.613   0.580   0.586   0.577   0.592   0.537   0.583   0.526   0.528   0.520   0.481   0.488   0.366   0.400   0.439   0.482   0.482   0.521   0.550   0.539   0.524   0.507   0.488   0.420   0.435   0.462   0.454   0.406   0.388   0.439   0.430   0.423
   116.04    0.733   0.707   0.700   0.675   0.614   0.588   0.618   0.656   0.603   0.497   0.550   0.518   0.440   0.408   0.436   0.451   0.519   0.531   0.534   0.590   0.610   0.524   0.481   0.475   0.437   0.404   0.460   0.443   0.425   0.420   0.402   0.415   0.503
   111.98    0.703   0.663   0.724   0.731   0.643   0.659   0.683   0.639   0.549   0.562   0.553   0.546   0.457   0.455   0.486   0.460   0.486   0.576   0.573   0.550   0.570   0.525   0.508   0.476   0.436   0.413   0.383   0.450   0.434   0.454   0.374   0.454   0.490
   107.91    0.683   0.668   0.692   0.718   0.678   0.680   0.655   0.552   0.535   0.540   0.533   0.561   0.493   0.481   0.467   0.438   0.494   0.547   0.510   0.506   0.524   0.567   0.612   0.546   0.521   0.467   0.451   0.403   0.408   0.415   0.381   0.441   0.435
   103.85    0.592   0.649   0.708   0.615   0.677   0.678   0.587   0.518   0.527   0.539   0.523   0.539   0.499   0.524   0.543   0.522   0.481   0.517   0.511   0.480   0.507   0.529   0.572   0.557   0.512   0.446   0.446   0.413   0.416   0.392   0.398   0.413   0.367
    99.79    0.600   0.639   0.662   0.629   0.595   0.671   0.634   0.596   0.606   0.617   0.538   0.507   0.578   0.541   0.494   0.490   0.537   0.585   0.538   0.517   0.489   0.509   0.564   0.530   0.451   0.392   0.421   0.393   0.393   0.419   0.403   0.460   0.466
    95.73    0.581   0.640   0.632   0.599   0.599   0.666   0.710   0.614   0.674   0.713   0.584   0.569   0.553   0.506   0.520   0.507   0.540   0.572   0.644   0.617   0.535   0.536   0.547   0.509   0.424   0.446   0.457   0.430   0.429   0.386   0.455   0.437   0.524
    91.66    0.591   0.620   0.690   0.646   0.666   0.657   0.651   0.651   0.616   0.653   0.714   0.665   0.551   0.482   0.543   0.555   0.516   0.628   0.640   0.665   0.658   0.621   0.564   0.513   0.510   0.442   0.522   0.448   0.425   0.449   0.467   0.457   0.468
    87.60    0.582   0.609   0.677   0.679   0.596   0.610   0.676   0.621   0.638   0.659   0.679   0.626   0.588   0.543   0.525   0.542   0.554   0.586   0.680   0.733   0.755   0.707   0.603   0.547   0.586   0.507   0.582   0.552   0.486   0.432   0.468   0.464   0.426
    83.54    0.554   0.614   0.652   0.588   0.617   0.620   0.661   0.621   0.660   0.667   0.677   0.638   0.503   0.538   0.502   0.551   0.619   0.580   0.671   0.673   0.694   0.728   0.660   0.685   0.648   0.591   0.581   0.549   0.506   0.474   0.478   0.491   0.426
    79.48    0.547   0.591   0.626   0.560   0.555   0.619   0.619   0.664   0.629   0.676   0.598   0.562   0.500   0.451   0.462   0.510   0.565   0.588   0.612   0.643   0.725   0.736   0.659   0.685   0.675   0.586   0.542   0.561   0.494   0.460   0.440   0.439   0.444
    75.41    0.498   0.528   0.515   0.595   0.543   0.541   0.633   0.643   0.651   0.697   0.632   0.550   0.512   0.469   0.435   0.488   0.525   0.581   0.599   0.586   0.626   0.688   0.650   0.644   0.657   0.614   0.583   0.521   0.492   0.456   0.426   0.440   0.419
    71.35    0.543   0.557   0.530   0.575   0.595   0.574   0.607   0.599   0.647   0.636   0.638   0.617   0.585   0.460   0.412   0.468   0.472   0.537   0.522   0.591   0.565   0.581   0.664   0.645   0.637   0.630   0.582   0.536   0.488   0.542   0.517   0.470   0.470
    67.29    0.553   0.581   0.574   0.555   0.563   0.598   0.597   0.628   0.586   0.573   0.587   0.538   0.541   0.503   0.436   0.489   0.483   0.546   0.561   0.542   0.552   0.563   0.630   0.690   0.719   0.736   0.643   0.638   0.546   0.507   0.512   0.515   0.518
    63.23    0.558   0.513   0.541   0.540   0.511   0.563   0.569   0.613   0.532   0.562   0.533   0.496   0.503   0.463   0.499   0.465   0.518   0.505   0.582   0.585   0.606   0.599   0.578   0.569   0.600   0.632   0.598   0.553   0.515   0.474   0.537   0.542   0.470
    59.16    0.598   0.596   0.555   0.581   0.586   0.564   0.583   0.633   0.628   0.571   0.535   0.556   0.559   0.506   0.576   0.564   0.557   0.538   0.500   0.509   0.562   0.466   0.580   0.592   0.574   0.567   0.548   0.505   0.498   0.519   0.467   0.548   0.513
    55.10    0.581   0.638   0.613   0.578   0.581   0.680   0.605   0.608   0.608   0.561   0.560   0.609   0.603   0.528   0.589   0.637   0.641   0.517   0.451   0.526   0.573   0.534   0.623   0.601   0.585   0.590   0.515   0.474   0.539   0.524   0.534   0.486   0.573
    51.04    0.623   0.666   0.559   0.632   0.628   0.641   0.602   0.549   0.504   0.546   0.576   0.706   0.611   0.575   0.544   0.576   0.629   0.580   0.495   0.553   0.600   0.605   0.613   0.648   0.591   0.559   0.495   0.458   0.488   0.517   0.570   0.512   0.590
    46.98    0.632   0.656   0.647   0.648   0.646   0.619   0.580   0.522   0.531   0.543   0.541   0.656   0.627   0.584   0.570   0.569   0.575   0.565   0.529   0.594   0.627   0.618   0.610   0.563   0.578   0.540   0.498   0.468   0.420   0.490   0.459   0.514   0.551
    42.91    0.661   0.675   0.699   0.713   0.654   0.665   0.644   0.637   0.552   0.586   0.533   0.615   0.659   0.575   0.609   0.557   0.591   0.636   0.699   0.631   0.580   0.583   0.600   0.608   0.529   0.522   0.496   0.413   0.406   0.443   0.518   0.565   0.540
    38.85    0.664   0.670   0.721   0.715   0.642   0.649   0.602   0.524   0.593   0.491   0.566   0.525   0.596   0.608   0.619   0.576   0.642   0.596   0.691   0.671   0.623   0.634   0.601   0.576   0.552   0.427   0.436   0.418   0.437   0.490   0.535   0.519   0.527
    34.79    0.596   0.597   0.656   0.647   0.599   0.604   0.604   0.521   0.493   0.504   0.548   0.542   0.595   0.636   0.625   0.606   0.649   0.621   0.625   0.638   0.595   0.562   0.570   0.558   0.593   0.487   0.448   0.465   0.497   0.472   0.550   0.527   0.461
    30.73    0.551   0.585   0.624   0.606   0.553   0.573   0.526   0.447   0.494   0.483   0.478   0.478   0.549   0.606   0.538   0.578   0.609   0.585   0.597   0.594   0.530   0.536   0.567   0.545   0.535   0.465   0.526   0.464   0.500   0.478   0.518   0.531   0.444
    26.66    0.582   0.579   0.661   0.588   0.550   0.544   0.506   0.512   0.571   0.515   0.531   0.471   0.560   0.590   0.554   0.605   0.581   0.593   0.548   0.539   0.572   0.588   0.557   0.495   0.502   0.490   0.458   0.485   0.497   0.462   0.524   0.550   0.446
    22.60    0.569   0.574   0.597   0.613   0.577   0.535   0.521   0.523   0.581   0.560   0.563   0.541   0.598   0.568   0.580   0.625   0.605   0.676   0.584   0.545   0.543   0.582   0.550   0.514   0.533   0.497   0.488   0.465   0.501   0.523   0.492   0.541   0.516

   Height   Standard deviation at grid points for the w component:
   152.60    0.480   0.395   0.397   0.413   0.407   0.376   0.370   0.366   0.408   0.361   0.342   0.350   0.336   0.377   0.399   0.384   0.361   0.336   0.349   0.330   0.315   0.331   0.405   0.437   0.368   0.418   0.387   0.415   0.407   0.421   0.398   0.366   0.346
   148.54    0.534   0.522   0.512   0.431   0.390   0.352   0.411   0.360   0.394   0.324   0.341   0.355   0.382   0.360   0.370   0.341   0.358   0.347   0.378   0.333   0.324   0.341   0.424   0.422   0.374   0.406   0.398   0.401   0.355   0.378   0.407   0.354   0.322
   144.48    0.528   0.478   0.478   0.441   0.407   0.391   0.385   0.394   0.436   0.430   0.387   0.390   0.407   0.398   0.386   0.342   0.307   0.302   0.334   0.338   0.356   0.374   0.411   0.388   0.393   0.431   0.422   0.394   0.369   0.363   0.370   0.405   0.383
   140.41    0.519   0.500   0.503   0.516   0.430   0.426   0.365   0.420   0.436   0.441   0.409   0.370   0.390   0.372   0.412   0.337   0.328   0.369   0.333   0.385   0.356   0.387   0.402   0.437   0.474   0.430   0.407   0.430   0.440   0.410   0.444   0.400   0.363
   136.35    0.532   0.511   0.527   0.509   0.480   0.422   0.416   0.429   0.415   0.453   0.451   0.432   0.390   0.385   0.355   0.393   0.378   0.387   0.415   0.438   0.423   0.440   0.442   0.478   0.446   0.455   0.439   0.423   0.420   0.428   0.445   0.453   0.380
   132.29    0.532   0.509   0.553   0.530   0.502   0.486   0.533   0.469   0.469   0.463   0.402   0.417   0.390   0.382   0.390   0.386   0.397   0.429   0.473   0.415   0.425   0.477   0.465   0.477   0.469   0.431   0.405   0.366   0.399   0.367   0.380   0.398   0.386
   128.23    0.459   0.528   0.549   0.521   0.530   0.538   0.544   0.568   0.493   0.487   0.451   0.388   0.367   0.391   0.396   0.381   0.394   0.464   0.499   0.462   0.453   0.439   0.460   0.467   0.466   0.481   0.406   0.414   0.383   0.381   0.388   0.339   0.298
   124.16    0.516   0.547   0.538   0.525   0.575   0.535   0.548   0.581   0.552   0.448   0.414   0.381   0.402   0.414   0.393   0.419   0.348   0.388   0.396   0.449   0.468   0.372   0.434   0.446   0.443   0.451   0.455   0.417   0.355   0.359   0.355   0.347   0.319
   120.10    0.513   0.564   0.546   0.576   0.548   0.519   0.520   0.557   0.547   0.513   0.465   0.408   0.419   0.408   0.388   0.363   0.385   0.365   0.377   0.399   0.461   0.457   0.504   0.438   0.444   0.492   0.455   0.436   0.358   0.334   0.370   0.350   0.327
   116.04    0.505   0.545   0.549   0.535   0.491   0.460   0.471   0.487   0.510   0.506   0.521   0.458   0.419   0.405   0.362   0.352   0.331   0.379   0.370   0.427   0.402   0.448   0.462   0.448   0.464   0.457   0.445   0.409   0.401   0.367   0.397   0.378   0.373
   111.98    0.494   0.558   0.513   0.488   0.538   0.515   0.481   0.481   0.481   0.425   0.485   0.456   0.405   0.413   0.356   0.360   0.392   0.365   0.375   0.369   0.436   0.401   0.462   0.466   0.508   0.511   0.465   0.420   0.416   0.447   0.426   0.383   0.419
   107.91    0.463   0.474   0.447   0.497   0.518   0.537   0.522   0.507   0.490   0.455   0.425   0.411   0.390   0.403   0.400   0.378   0.388   0.333   0.403   0.417   0.464   0.462   0.436   0.456   0.478   0.496   0.391   0.423   0.437   0.423   0.422   0.410   0.456
   103.85    0.449   0.455   0.459   0.469   0.503   0.494   0.404   0.436   0.506   0.466   0.381   0.370   0.398   0.394   0.375   0.354   0.356   0.395   0.429   0.470   0.510   0.463   0.399   0.429   0.472   0.427   0.414   0.445   0.459   0.486   0.434   0.417   0.421
    99.79    0.405   0.425   0.476   0.452   0.455   0.401   0.407   0.440   0.429   0.443   0.420   0.377   0.382   0.410   0.351   0.364   0.430   0.413   0.484   0.514   0.505   0.490   0.456   0.455   0.390   0.441   0.426   0.392   0.459   0.497   0.470   0.425   0.442
    95.73    0.417   0.449   0.439   0.450   0.432   0.391   0.430   0.415   0.434   0.422   0.399   0.380   0.390   0.356   0.332   0.391   0.437   0.490   0.505   0.542   0.526   0.461   0.447   0.405   0.422   0.401   0.430   0.425   0.422   0.456   0.463   0.530   0.451
    91.66    0.469   0.450   0.421   0.409   0.395   0.445   0.433   0.422   0.417   0.442   0.400   0.327   0.373   0.358   0.306   0.405   0.447   0.511   0.543   0.524   0.527   0.459   0.443   0.467   0.448   0.425   0.441   0.459   0.431   0.499   0.482   0.513   0.521
    87.60    0.492   0.491   0.441   0.423   0.405   0.426   0.424   0.411   0.456   0.427   0.401   0.352   0.374   0.405   0.366   0.386   0.466   0.496   0.476   0.515   0.515   0.459   0.469   0.516   0.435   0.416   0.438   0.445   0.414   0.450   0.504   0.455   0.549
    83.54    0.474   0.520   0.485   0.519   0.500   0.413   0.400   0.428   0.403   0.435   0.399   0.438   0.414   0.405   0.427   0.436   0.441   0.424   0.468   0.472   0.460   0.433   0.432   0.461   0.440   0.396   0.430   0.421   0.469   0.456   0.465   0.460   0.505
    79.48    0.527   0.472   0.510   0.521   0.490   0.422   0.427   0.406   0.405   0.453   0.467   0.438   0.410   0.420   0.415   0.420   0.468   0.460   0.446   0.408   0.433   0.421   0.442   0.414   0.400   0.409   0.413   0.410   0.452   0.460   0.455   0.507   0.509
    75.41    0.507   0.538   0.564   0.535   0.487   0.460   0.460   0.386   0.358   0.410   0.379   0.392   0.422   0.381   0.416   0.407   0.462   0.472   0.477   0.409   0.395   0.398   0.381   0.416   0.395   0.397   0.403   0.404   0.444   0.424   0.449   0.460   0.531
    71.35    0.553   0.502   0.482   0.511   0.518   0.450   0.421   0.360   0.386   0.390   0.356   0.335   0.397   0.342   0.395   0.409   0.395   0.444   0.430   0.477   0.411   0.382   0.407   0.397   0.431   0.403   0.398   0.383   0.421   0.434   0.444   0.422   0.477
    67.29    0.442   0.491   0.445   0.428   0.472   0.470   0.439   0.425   0.436   0.380   0.342   0.360   0.374   0.391   0.409   0.467   0.439   0.430   0.440   0.444   0.388   0.396   0.408   0.398   0.381   0.400   0.422   0.386   0.414   0.412   0.443   0.479   0.470
    63.23    0.478   0.410   0.421   0.391   0.489   0.456   0.417   0.388   0.387   0.399   0.401   0.363   0.368   0.395   0.389   0.431   0.403   0.394   0.436   0.408   0.383   0.396   0.410   0.367   0.350   0.433   0.493   0.416   0.465   0.448   0.449   0.497   0.494
    59.16    0.517   0.497   0.444   0.440   0.468   0.442   0.446   0.418   0.420   0.414   0.417   0.410   0.404   0.383   0.450   0.444   0.451   0.456   0.441   0.407   0.433   0.389   0.387   0.377   0.421   0.405   0.395   0.430   0.430   0.490   0.474   0.463   0.516
    55.10    0.460   0.493   0.459   0.460   0.470   0.431   0.429   0.464   0.459   0.441   0.372   0.420   0.374   0.410   0.408   0.417   0.442   0.427   0.438   0.435   0.467   0.433   0.401   0.412   0.445   0.439   0.361   0.420   0.479   0.425   0.494   0.485   0.481
    51.04    0.466   0.453   0.416   0.441   0.432   0.450   0.442   0.469   0.483   0.493   0.476   0.430   0.421   0.410   0.399   0.425   0.399   0.346   0.379   0.404   0.457   0.477   0.461   0.512   0.509   0.459   0.474   0.469   0.480   0.452   0.468   0.506   0.445
    46.98    0.397   0.400   0.430   0.419   0.393   0.436   0.423   0.396   0.423   0.462   0.412   0.408   0.383   0.394   0.447   0.438   0.441   0.401   0.351   0.410   0.423   0.485   0.521   0.562   0.498   0.431   0.480   0.486   0.479   0.491   0.510   0.524   0.532
    42.91    0.369   0.369   0.414   0.383   0.433   0.448   0.386   0.393   0.374   0.386   0.380   0.430   0.411   0.395   0.416   0.442   0.446   0.382   0.409   0.442   0.452   0.510   0.533   0.549   0.449   0.459   0.484   0.448   0.509   0.521   0.544   0.496   0.539
    38.85    0.388   0.370   0.387   0.374   0.403   0.388   0.381   0.386   0.378   0.428   0.429   0.468   0.420   0.396   0.445   0.499   0.546   0.502   0.506   0.468   0.486   0.471   0.501   0.512   0.471   0.521   0.487   0.476   0.499   0.513   0.550   0.513   0.498
    34.79    0.445   0.414   0.374   0.383   0.422   0.403   0.385   0.419   0.412   0.476   0.481   0.433   0.449   0.446   0.472   0.470   0.533   0.526   0.509   0.489   0.516   0.524   0.505   0.491   0.481   0.508   0.547   0.601   0.528   0.523   0.610   0.579   0.537
    30.73    0.448   0.425   0.401   0.390   0.405   0.393   0.421   0.446   0.433   0.453   0.452   0.491   0.507   0.537   0.447   0.491   0.571   0.503   0.514   0.489   0.517   0.500   0.523   0.489   0.479   0.508   0.572   0.607   0.592   0.540   0.624   0.596   0.542
    26.66    0.439   0.397   0.454   0.458   0.431   0.451   0.493   0.449   0.440   0.420   0.489   0.518   0.527   0.503   0.486   0.524   0.508   0.480   0.519   0.494   0.456   0.493   0.547   0.538   0.526   0.537   0.555   0.589   0.576   0.574   0.637   0.646   0.565
    22.60    0.450   0.443   0.455   0.514   0.478   0.471   0.443   0.428   0.440   0.456   0.469   0.518   0.559   0.565   0.550   0.497   0.523   0.532   0.537   0.447   0.461   0.482   0.496   0.521   0.462   0.496   0.530   0.552   0.551   0.597   0.603   0.590   0.585

   Mean standard deviation across all grid points:
      u component:    0.510 m/s
      v component:    0.538 m/s
      w component:    0.441 m/s


U-component (X) statistics from the hub grid point:

   Mean =   7.0000 m/s
   TI   =   6.3513 %

Nyquist frequency of turbulent wind field =        10.000 Hz


Processing complete.  76.625 CPU seconds used.
