
This summary file was generated by TurbSim (v1.06.00, 21-Sep-2012) on 24-Sep-2020 at 15:21:40.


Runtime Options:

  65432154  Random seed #1
    RANLUX  Type of random number generator
         F  Output binary HH turbulence parameters?
         F  Output formatted turbulence parameters?
         F  Output AeroDyn HH files?
         T  Output AeroDyn FF files?
         F  Output BLADED FF files?
         T  Output tower data?
         F  Output formatted FF files?
         F  Output coherent turbulence time step file?
         T  Clockwise rotation when looking downwind?
 0 -  NONE  IEC turbulence models scaled to exact specified standard deviation


Turbine/Model Specifications:

        33  Vertical grid-point matrix dimension
        33  Horizontal grid-point matrix dimension
     0.050  Time step [seconds]
  3610.000  Analysis time [seconds]
  3610.000  Usable output time [seconds]
    87.600  Hub height [m]
   130.000  Grid height [m]
   130.000  Grid width [m]
     0.000  Vertical flow angle [degrees]
     0.000  Horizontal flow angle [degrees]


Meteorological Boundary Conditions:

    SMOOTH  RISO Smooth Terrain spectral model
       N/A  IEC standard
       N/A  IEC turbulence characteristic
       N/A  IEC turbulence type
       N/A  IEC Extreme Turbulence Model (ETM) "c" parameter [m/s]
       IEC  Wind profile type
    87.600  Reference height [m]
    16.000  Reference wind speed [m/s]
       N/A  Jet height [m]
     0.143  Power law exponent
     0.010  Surface roughness length [m]


Non-IEC Meteorological Boundary Conditions:

    45.000  Site latitude [degrees]
     0.050  Gradient Richardson number
     0.680  Friction or shear velocity [m/s]
       N/A  Mixing layer depth [m]
    -0.462  Mean hub u'w' Reynolds stress
       N/A  Mean hub u'v' Reynolds stress
       N/A  Mean hub v'w' Reynolds stress
(   16.000,  0.00    )  u-component coherence parameters
(   12.000,  0.00    )  v-component coherence parameters
(   12.000,  0.00    )  w-component coherence parameters
     0.000  Coherence exponent


You have requested that the following file(s) be generated:

   unsteady_tmp_16.bts (AeroDyn/TurbSim full-field wind file)


Turbulence Simulation Scaling Parameter Summary:

   Turbulence model used                            =  RISO Smooth Terrain
   Gradient Richardson number                       =    0.050
   Monin-Obukhov (M-O) z/L parameter                =    0.067
   Monin-Obukhov (M-O) length scale                 = 1314.000 m
   Mean wind speed at hub height                    =   16.000 m/s

   Wind profile type                                =  Power law on rotor disk, logarithmic elsewhere
   Power law exponent                               =    0.143
   Mean shear across rotor disk                     =    0.029 (m/s)/m
   Assumed rotor diameter                           =  130.000 m
   Surface roughness length                         =    0.010 m

   Number of time steps in the FFT                  =    72576
   Number of time steps output                      =    72363


Mean Flow Angles:

   Vertical   =   0.0 degrees
   Horizontal =   0.0 degrees

Mean Wind Speed Profile:

   Height    Wind Speed   Horizontal Angle  U-comp (X)   V-comp (Y)   W-comp (Z)
     (m)        (m/s)         (degrees)       (m/s)        (m/s)        (m/s)   
   ------    ----------   ----------------  ----------   ----------   ----------
    152.6       16.98            0.00         16.98         0.00         0.00
    148.5       17.25            0.00         17.25         0.00         0.00
    144.5       17.19            0.00         17.19         0.00         0.00
    140.4       17.12            0.00         17.12         0.00         0.00
    136.4       17.05            0.00         17.05         0.00         0.00
    132.3       16.97            0.00         16.97         0.00         0.00
    128.2       16.90            0.00         16.90         0.00         0.00
    124.2       16.82            0.00         16.82         0.00         0.00
    120.1       16.74            0.00         16.74         0.00         0.00
    116.0       16.66            0.00         16.66         0.00         0.00
    112.0       16.57            0.00         16.57         0.00         0.00
    107.9       16.48            0.00         16.48         0.00         0.00
    103.9       16.39            0.00         16.39         0.00         0.00
     99.8       16.30            0.00         16.30         0.00         0.00
     95.7       16.20            0.00         16.20         0.00         0.00
     91.7       16.10            0.00         16.10         0.00         0.00
     87.6       16.00            0.00         16.00         0.00         0.00
     83.5       15.89            0.00         15.89         0.00         0.00
     79.5       15.78            0.00         15.78         0.00         0.00
     75.4       15.66            0.00         15.66         0.00         0.00
     71.4       15.54            0.00         15.54         0.00         0.00
     67.3       15.41            0.00         15.41         0.00         0.00
     63.2       15.27            0.00         15.27         0.00         0.00
     59.2       15.13            0.00         15.13         0.00         0.00
     55.1       14.97            0.00         14.97         0.00         0.00
     51.0       14.81            0.00         14.81         0.00         0.00
     47.0       14.64            0.00         14.64         0.00         0.00
     42.9       14.45            0.00         14.45         0.00         0.00
     38.9       14.24            0.00         14.24         0.00         0.00
     34.8       14.02            0.00         14.02         0.00         0.00
     30.7       13.77            0.00         13.77         0.00         0.00
     26.7       13.50            0.00         13.50         0.00         0.00
     22.6       13.18            0.00         13.18         0.00         0.00
     18.5       13.26            0.00         13.26         0.00         0.00
     14.5       12.83            0.00         12.83         0.00         0.00
     10.4       12.25            0.00         12.25         0.00         0.00
      6.4       11.37            0.00         11.37         0.00         0.00
      2.3        9.58            0.00          9.58         0.00         0.00


Harvested Random Seeds after Generation of the Random Numbers:

    106611632 K1
            1 K2


Scaling statistics from the hub grid point:

   Cross-Component  Scaling Factor
   ---------------  --------------
   u'w'               -0.11868E+00
   u'v'                0.00000E+00
   v'w'                0.00000E+00


Hub-Height Simulated Turbulence Statistical Summary:

   Type of Wind        Min (m/s)   Mean (m/s)    Max (m/s)  Sigma (m/s)       TI (%)
   ----------------    ---------   ----------    ---------  -----------       ------
   Longitudinal (u)         9.25        16.00        22.14        1.756       10.972
   Lateral (v)             -5.56         0.00         5.00        1.359        8.491
   Vertical (w)            -4.68         0.00         4.29        1.077        6.733
   U component              9.25        16.00        22.14        1.756       10.972
   V component             -5.56         0.00         5.00        1.359        8.491
   W component             -4.68         0.00         4.29        1.077        6.733
   Horizontal (U&V)         9.29        16.06        22.18        1.754       10.923
   Total                    9.31        16.09        22.20        1.749       10.867

                       Min Reynolds     Mean Reynolds    Max Reynolds    Correlation
   Product             Stress (m/s)^2   Stress (m/s)^2   Stress (m/s)^2  Coefficient
   ----------------    --------------   --------------   --------------  -----------
   u'w'                    -17.902            -0.462            11.134        -0.245
   u'v'                    -16.413            -0.065            16.111        -0.027
   v'w'                    -13.275             0.020            12.975         0.013


   Friction Velocity (Ustar)  =      0.680 m/s
   Maximum Instantaneous TKE  =     23.360 (m/s)^2
   Maximum Instantaneous CTKE =     10.084 (m/s)^2


Grid Point Variance Summary:

   Y-coord  -65.00  -60.94  -56.88  -52.81  -48.75  -44.69  -40.62  -36.56  -32.50  -28.44  -24.38  -20.31  -16.25  -12.19   -8.12   -4.06    0.00    4.06    8.12   12.19   16.25   20.31   24.38   28.44   32.50   36.56   40.62   44.69   48.75   52.81   56.88   60.94   65.00

   Height   Standard deviation at grid points for the u component:
   152.60    1.785   1.784   1.822   1.811   1.833   1.890   1.868   1.861   1.878   1.862   1.837   1.812   1.846   1.791   1.787   1.790   1.791   1.825   1.852   1.828   1.807   1.785   1.773   1.773   1.752   1.754   1.754   1.761   1.724   1.713   1.705   1.701   1.695
   148.54    1.786   1.797   1.838   1.805   1.865   1.915   1.892   1.892   1.880   1.861   1.891   1.876   1.871   1.816   1.826   1.793   1.813   1.813   1.855   1.826   1.825   1.821   1.811   1.763   1.762   1.766   1.740   1.747   1.724   1.692   1.681   1.680   1.711
   144.48    1.776   1.815   1.820   1.797   1.851   1.901   1.899   1.919   1.903   1.900   1.901   1.911   1.842   1.862   1.844   1.832   1.808   1.823   1.823   1.843   1.836   1.866   1.824   1.783   1.741   1.749   1.776   1.744   1.719   1.718   1.703   1.719   1.701
   140.41    1.790   1.836   1.841   1.802   1.849   1.909   1.926   1.914   1.930   1.899   1.897   1.876   1.870   1.855   1.866   1.830   1.831   1.821   1.819   1.823   1.837   1.822   1.795   1.779   1.762   1.785   1.747   1.756   1.737   1.729   1.761   1.774   1.710
   136.35    1.787   1.809   1.834   1.824   1.868   1.886   1.910   1.941   1.926   1.889   1.875   1.892   1.890   1.866   1.859   1.816   1.819   1.826   1.831   1.844   1.844   1.829   1.785   1.771   1.761   1.789   1.741   1.746   1.758   1.731   1.736   1.762   1.761
   132.29    1.793   1.792   1.837   1.829   1.874   1.905   1.917   1.930   1.916   1.878   1.898   1.870   1.884   1.858   1.853   1.815   1.809   1.823   1.838   1.823   1.811   1.803   1.764   1.760   1.777   1.774   1.727   1.737   1.737   1.724   1.727   1.747   1.762
   128.23    1.820   1.810   1.822   1.846   1.890   1.926   1.941   1.907   1.899   1.875   1.881   1.870   1.877   1.861   1.836   1.803   1.805   1.818   1.838   1.852   1.836   1.801   1.782   1.752   1.757   1.741   1.743   1.724   1.727   1.727   1.718   1.740   1.740
   124.16    1.816   1.836   1.861   1.859   1.890   1.911   1.893   1.864   1.862   1.873   1.879   1.888   1.888   1.870   1.846   1.805   1.774   1.789   1.785   1.809   1.834   1.821   1.798   1.777   1.786   1.744   1.736   1.688   1.715   1.705   1.719   1.762   1.760
   120.10    1.823   1.823   1.841   1.861   1.855   1.862   1.866   1.858   1.847   1.849   1.839   1.884   1.856   1.847   1.811   1.786   1.800   1.781   1.815   1.792   1.825   1.789   1.780   1.769   1.769   1.742   1.715   1.688   1.710   1.737   1.727   1.757   1.800
   116.04    1.789   1.826   1.832   1.855   1.861   1.854   1.864   1.836   1.851   1.839   1.827   1.818   1.852   1.840   1.821   1.781   1.780   1.779   1.786   1.804   1.802   1.795   1.768   1.762   1.743   1.763   1.726   1.722   1.742   1.722   1.739   1.726   1.799
   111.98    1.781   1.805   1.813   1.818   1.826   1.835   1.808   1.832   1.825   1.810   1.804   1.807   1.839   1.841   1.813   1.797   1.789   1.788   1.812   1.837   1.844   1.823   1.759   1.749   1.755   1.753   1.745   1.743   1.738   1.754   1.761   1.764   1.807
   107.91    1.767   1.784   1.823   1.811   1.791   1.801   1.790   1.802   1.822   1.786   1.776   1.793   1.810   1.840   1.827   1.782   1.789   1.778   1.820   1.845   1.846   1.830   1.777   1.768   1.746   1.765   1.739   1.757   1.787   1.781   1.770   1.768   1.792
   103.85    1.811   1.788   1.819   1.787   1.831   1.794   1.798   1.778   1.762   1.785   1.762   1.788   1.787   1.813   1.809   1.792   1.810   1.785   1.814   1.853   1.843   1.846   1.797   1.797   1.755   1.778   1.789   1.774   1.773   1.788   1.764   1.769   1.804
    99.79    1.806   1.806   1.800   1.820   1.820   1.825   1.802   1.761   1.740   1.748   1.738   1.787   1.791   1.795   1.780   1.757   1.777   1.747   1.811   1.823   1.818   1.811   1.815   1.779   1.767   1.750   1.816   1.799   1.756   1.756   1.757   1.780   1.798
    95.73    1.788   1.785   1.807   1.802   1.829   1.805   1.812   1.782   1.756   1.763   1.758   1.784   1.797   1.792   1.775   1.766   1.759   1.772   1.772   1.810   1.805   1.786   1.788   1.800   1.772   1.767   1.763   1.775   1.786   1.797   1.794   1.799   1.830
    91.66    1.773   1.772   1.786   1.806   1.816   1.805   1.800   1.795   1.755   1.765   1.741   1.786   1.821   1.798   1.786   1.780   1.739   1.757   1.750   1.789   1.789   1.783   1.795   1.816   1.794   1.798   1.778   1.766   1.784   1.776   1.811   1.828   1.848
    87.60    1.797   1.786   1.803   1.813   1.801   1.812   1.799   1.793   1.762   1.788   1.777   1.818   1.813   1.794   1.761   1.721   1.756   1.777   1.761   1.789   1.793   1.799   1.801   1.788   1.794   1.786   1.772   1.810   1.772   1.782   1.789   1.788   1.827
    83.54    1.813   1.776   1.802   1.829   1.795   1.803   1.775   1.774   1.748   1.751   1.769   1.780   1.774   1.785   1.790   1.772   1.794   1.788   1.792   1.782   1.811   1.779   1.776   1.795   1.785   1.782   1.766   1.766   1.764   1.747   1.766   1.789   1.813
    79.48    1.821   1.775   1.787   1.789   1.750   1.756   1.741   1.716   1.744   1.782   1.782   1.765   1.766   1.777   1.805   1.804   1.841   1.817   1.812   1.797   1.796   1.803   1.806   1.822   1.805   1.769   1.737   1.734   1.780   1.781   1.794   1.781   1.789
    75.41    1.815   1.784   1.792   1.779   1.765   1.724   1.734   1.738   1.731   1.773   1.781   1.805   1.768   1.772   1.806   1.817   1.790   1.790   1.792   1.816   1.792   1.780   1.796   1.787   1.748   1.748   1.749   1.743   1.787   1.771   1.752   1.789   1.830
    71.35    1.789   1.802   1.805   1.755   1.729   1.727   1.747   1.734   1.763   1.761   1.776   1.798   1.772   1.796   1.814   1.814   1.816   1.785   1.773   1.809   1.821   1.820   1.798   1.779   1.760   1.740   1.736   1.756   1.772   1.758   1.774   1.796   1.822
    67.29    1.789   1.797   1.790   1.780   1.777   1.774   1.743   1.783   1.739   1.773   1.774   1.764   1.770   1.772   1.774   1.810   1.798   1.800   1.811   1.796   1.831   1.794   1.767   1.775   1.758   1.771   1.761   1.757   1.800   1.774   1.760   1.776   1.828
    63.23    1.776   1.769   1.784   1.826   1.801   1.776   1.817   1.824   1.789   1.767   1.777   1.775   1.763   1.792   1.798   1.813   1.804   1.839   1.817   1.824   1.802   1.791   1.788   1.801   1.753   1.746   1.740   1.753   1.781   1.771   1.764   1.771   1.800
    59.16    1.778   1.796   1.789   1.829   1.799   1.787   1.817   1.805   1.804   1.792   1.810   1.807   1.774   1.780   1.775   1.779   1.814   1.851   1.824   1.800   1.806   1.787   1.757   1.790   1.774   1.783   1.760   1.759   1.744   1.766   1.750   1.734   1.769
    55.10    1.798   1.798   1.800   1.783   1.783   1.798   1.816   1.831   1.782   1.784   1.796   1.810   1.786   1.773   1.777   1.811   1.786   1.802   1.807   1.800   1.811   1.785   1.776   1.784   1.765   1.796   1.760   1.767   1.763   1.760   1.742   1.701   1.720
    51.04    1.832   1.830   1.804   1.787   1.772   1.811   1.832   1.794   1.766   1.762   1.763   1.788   1.789   1.802   1.811   1.820   1.793   1.786   1.782   1.765   1.810   1.769   1.793   1.776   1.780   1.769   1.787   1.783   1.805   1.760   1.729   1.731   1.732
    46.98    1.833   1.810   1.789   1.771   1.783   1.805   1.816   1.813   1.759   1.738   1.748   1.801   1.806   1.838   1.812   1.825   1.776   1.791   1.793   1.778   1.761   1.745   1.756   1.776   1.771   1.765   1.807   1.807   1.783   1.775   1.762   1.733   1.709
    42.91    1.836   1.796   1.791   1.778   1.813   1.768   1.778   1.763   1.741   1.756   1.783   1.790   1.835   1.796   1.808   1.811   1.787   1.753   1.768   1.762   1.771   1.765   1.764   1.763   1.776   1.789   1.814   1.821   1.769   1.760   1.758   1.760   1.749
    38.85    1.767   1.768   1.727   1.767   1.739   1.762   1.762   1.767   1.726   1.772   1.821   1.811   1.792   1.810   1.810   1.782   1.760   1.788   1.739   1.744   1.775   1.769   1.750   1.776   1.794   1.792   1.790   1.811   1.806   1.808   1.786   1.754   1.760
    34.79    1.763   1.755   1.752   1.748   1.709   1.720   1.736   1.741   1.752   1.773   1.782   1.844   1.821   1.783   1.809   1.810   1.798   1.808   1.760   1.743   1.770   1.764   1.785   1.790   1.787   1.778   1.796   1.788   1.802   1.799   1.764   1.760   1.712
    30.73    1.753   1.724   1.734   1.742   1.721   1.712   1.707   1.745   1.736   1.769   1.804   1.814   1.828   1.821   1.833   1.818   1.816   1.782   1.770   1.778   1.801   1.772   1.752   1.778   1.792   1.803   1.783   1.796   1.798   1.785   1.756   1.756   1.732
    26.66    1.795   1.759   1.761   1.753   1.764   1.715   1.723   1.760   1.770   1.775   1.807   1.800   1.818   1.825   1.811   1.803   1.791   1.770   1.759   1.755   1.783   1.771   1.787   1.788   1.780   1.817   1.809   1.799   1.775   1.768   1.764   1.777   1.754
    22.60    1.768   1.762   1.719   1.719   1.727   1.731   1.773   1.789   1.796   1.797   1.828   1.781   1.806   1.795   1.738   1.785   1.780   1.766   1.775   1.766   1.783   1.768   1.772   1.769   1.787   1.774   1.784   1.766   1.752   1.771   1.790   1.749   1.773

   Height   Standard deviation at grid points for the v component:
   152.60    1.322   1.295   1.308   1.307   1.320   1.309   1.304   1.311   1.336   1.342   1.351   1.357   1.344   1.350   1.325   1.313   1.322   1.326   1.333   1.341   1.351   1.353   1.334   1.324   1.347   1.356   1.357   1.362   1.347   1.317   1.315   1.323   1.329
   148.54    1.306   1.321   1.309   1.309   1.318   1.315   1.306   1.310   1.330   1.344   1.343   1.343   1.338   1.352   1.335   1.324   1.320   1.314   1.315   1.325   1.340   1.334   1.331   1.332   1.338   1.353   1.358   1.359   1.353   1.333   1.312   1.324   1.331
   144.48    1.330   1.336   1.330   1.324   1.315   1.327   1.323   1.325   1.340   1.343   1.313   1.317   1.335   1.351   1.325   1.292   1.299   1.310   1.297   1.311   1.332   1.320   1.324   1.326   1.321   1.356   1.353   1.347   1.347   1.334   1.311   1.313   1.327
   140.41    1.329   1.341   1.345   1.334   1.335   1.319   1.342   1.328   1.348   1.335   1.344   1.326   1.327   1.335   1.297   1.291   1.324   1.313   1.297   1.313   1.330   1.337   1.339   1.329   1.337   1.349   1.350   1.353   1.350   1.329   1.333   1.336   1.297
   136.35    1.342   1.337   1.333   1.334   1.330   1.357   1.363   1.374   1.346   1.340   1.343   1.323   1.337   1.343   1.309   1.293   1.280   1.311   1.319   1.313   1.323   1.330   1.336   1.344   1.328   1.338   1.360   1.355   1.340   1.325   1.325   1.336   1.299
   132.29    1.339   1.343   1.340   1.336   1.326   1.354   1.355   1.359   1.356   1.355   1.349   1.338   1.330   1.347   1.335   1.308   1.285   1.304   1.316   1.349   1.333   1.345   1.348   1.361   1.336   1.326   1.355   1.333   1.330   1.339   1.328   1.341   1.309
   128.23    1.343   1.363   1.358   1.369   1.346   1.341   1.346   1.362   1.360   1.351   1.351   1.360   1.338   1.343   1.354   1.328   1.316   1.301   1.305   1.333   1.318   1.353   1.323   1.324   1.317   1.334   1.348   1.325   1.330   1.329   1.338   1.329   1.299
   124.16    1.339   1.358   1.361   1.355   1.353   1.354   1.334   1.339   1.374   1.377   1.375   1.356   1.357   1.356   1.355   1.337   1.325   1.313   1.288   1.324   1.338   1.328   1.310   1.312   1.329   1.330   1.320   1.334   1.338   1.344   1.348   1.324   1.295
   120.10    1.363   1.368   1.377   1.365   1.373   1.356   1.334   1.363   1.364   1.384   1.362   1.382   1.386   1.351   1.350   1.345   1.313   1.298   1.303   1.332   1.336   1.349   1.311   1.312   1.317   1.305   1.297   1.309   1.334   1.325   1.339   1.294   1.303
   116.04    1.371   1.375   1.355   1.381   1.359   1.366   1.367   1.367   1.367   1.364   1.376   1.363   1.356   1.364   1.368   1.365   1.332   1.328   1.324   1.320   1.330   1.327   1.321   1.296   1.292   1.303   1.302   1.301   1.308   1.294   1.306   1.297   1.292
   111.98    1.362   1.369   1.363   1.390   1.390   1.362   1.369   1.369   1.363   1.376   1.370   1.374   1.375   1.368   1.365   1.363   1.359   1.353   1.343   1.322   1.323   1.305   1.301   1.301   1.300   1.311   1.313   1.282   1.282   1.287   1.301   1.305   1.292
   107.91    1.357   1.349   1.356   1.356   1.397   1.382   1.388   1.375   1.357   1.369   1.375   1.360   1.362   1.379   1.376   1.355   1.347   1.336   1.339   1.325   1.310   1.299   1.293   1.303   1.316   1.303   1.305   1.286   1.296   1.314   1.324   1.303   1.314
   103.85    1.330   1.324   1.339   1.348   1.365   1.388   1.395   1.366   1.363   1.353   1.359   1.362   1.360   1.376   1.354   1.337   1.337   1.335   1.324   1.299   1.303   1.277   1.304   1.310   1.317   1.302   1.303   1.313   1.309   1.315   1.326   1.318   1.306
    99.79    1.330   1.315   1.324   1.361   1.362   1.355   1.360   1.359   1.347   1.364   1.357   1.359   1.359   1.360   1.354   1.327   1.327   1.345   1.323   1.305   1.290   1.300   1.313   1.324   1.314   1.303   1.322   1.324   1.319   1.311   1.321   1.314   1.330
    95.73    1.325   1.328   1.350   1.361   1.372   1.367   1.363   1.360   1.357   1.349   1.372   1.348   1.363   1.351   1.349   1.354   1.348   1.323   1.326   1.333   1.310   1.297   1.303   1.328   1.314   1.310   1.318   1.319   1.332   1.341   1.324   1.321   1.309
    91.66    1.350   1.350   1.358   1.365   1.381   1.354   1.360   1.367   1.374   1.383   1.351   1.375   1.371   1.349   1.353   1.351   1.337   1.351   1.356   1.345   1.332   1.329   1.324   1.341   1.322   1.315   1.318   1.322   1.329   1.335   1.327   1.330   1.293
    87.60    1.359   1.345   1.364   1.370   1.377   1.364   1.352   1.376   1.372   1.365   1.370   1.377   1.370   1.372   1.354   1.359   1.359   1.362   1.356   1.346   1.353   1.343   1.330   1.334   1.334   1.324   1.330   1.349   1.339   1.334   1.322   1.312   1.307
    83.54    1.335   1.348   1.376   1.373   1.365   1.358   1.342   1.363   1.363   1.367   1.359   1.353   1.365   1.361   1.375   1.387   1.362   1.364   1.354   1.349   1.357   1.332   1.343   1.319   1.348   1.350   1.335   1.340   1.337   1.329   1.325   1.326   1.320
    79.48    1.335   1.344   1.360   1.364   1.369   1.386   1.374   1.356   1.340   1.366   1.360   1.343   1.356   1.346   1.369   1.360   1.353   1.355   1.363   1.351   1.350   1.339   1.316   1.325   1.340   1.333   1.334   1.337   1.330   1.340   1.349   1.346   1.307
    75.41    1.351   1.363   1.345   1.345   1.373   1.378   1.362   1.354   1.340   1.343   1.347   1.353   1.365   1.353   1.361   1.372   1.355   1.361   1.343   1.333   1.316   1.326   1.323   1.319   1.332   1.334   1.336   1.334   1.316   1.333   1.358   1.355   1.321
    71.35    1.358   1.353   1.337   1.360   1.359   1.352   1.342   1.336   1.323   1.350   1.383   1.363   1.357   1.365   1.363   1.359   1.341   1.349   1.321   1.311   1.314   1.308   1.302   1.321   1.334   1.340   1.339   1.319   1.329   1.331   1.331   1.337   1.334
    67.29    1.360   1.336   1.343   1.363   1.346   1.338   1.349   1.350   1.352   1.365   1.370   1.388   1.364   1.345   1.359   1.359   1.377   1.354   1.328   1.305   1.283   1.299   1.309   1.324   1.307   1.321   1.330   1.317   1.316   1.319   1.325   1.327   1.332
    63.23    1.350   1.331   1.338   1.331   1.334   1.353   1.342   1.365   1.380   1.361   1.364   1.377   1.368   1.368   1.365   1.362   1.371   1.359   1.351   1.327   1.314   1.329   1.339   1.338   1.338   1.340   1.316   1.312   1.318   1.328   1.322   1.327   1.333
    59.16    1.342   1.343   1.337   1.322   1.330   1.359   1.361   1.372   1.369   1.365   1.367   1.356   1.362   1.361   1.346   1.363   1.371   1.358   1.356   1.343   1.333   1.327   1.351   1.344   1.325   1.350   1.327   1.306   1.315   1.335   1.350   1.340   1.334
    55.10    1.350   1.348   1.343   1.349   1.349   1.364   1.366   1.356   1.349   1.332   1.341   1.354   1.365   1.368   1.362   1.358   1.345   1.363   1.358   1.351   1.345   1.350   1.357   1.355   1.341   1.342   1.335   1.331   1.302   1.333   1.335   1.331   1.332
    51.04    1.355   1.365   1.332   1.338   1.353   1.351   1.356   1.373   1.347   1.357   1.357   1.357   1.370   1.363   1.378   1.350   1.349   1.355   1.358   1.351   1.341   1.346   1.347   1.346   1.352   1.346   1.338   1.331   1.329   1.336   1.331   1.330   1.336
    46.98    1.351   1.348   1.326   1.325   1.326   1.325   1.344   1.349   1.353   1.350   1.356   1.344   1.360   1.356   1.360   1.352   1.363   1.357   1.351   1.367   1.361   1.361   1.347   1.342   1.351   1.360   1.348   1.337   1.323   1.312   1.334   1.316   1.324
    42.91    1.341   1.324   1.324   1.308   1.320   1.330   1.343   1.358   1.368   1.354   1.351   1.350   1.363   1.361   1.350   1.343   1.347   1.365   1.367   1.359   1.363   1.379   1.355   1.334   1.345   1.347   1.324   1.338   1.331   1.334   1.315   1.337   1.334
    38.85    1.332   1.322   1.307   1.312   1.318   1.339   1.350   1.343   1.364   1.362   1.355   1.339   1.361   1.353   1.356   1.355   1.358   1.353   1.353   1.339   1.352   1.374   1.361   1.339   1.343   1.330   1.331   1.331   1.339   1.329   1.344   1.351   1.341
    34.79    1.346   1.333   1.305   1.310   1.303   1.333   1.335   1.345   1.362   1.362   1.353   1.337   1.353   1.338   1.351   1.354   1.332   1.359   1.359   1.362   1.349   1.360   1.358   1.339   1.326   1.330   1.340   1.342   1.340   1.328   1.347   1.355   1.345
    30.73    1.338   1.324   1.323   1.303   1.327   1.323   1.344   1.340   1.352   1.358   1.361   1.348   1.338   1.333   1.324   1.344   1.343   1.334   1.344   1.370   1.373   1.385   1.346   1.349   1.348   1.345   1.327   1.345   1.339   1.335   1.328   1.340   1.344
    26.66    1.328   1.334   1.334   1.329   1.314   1.329   1.329   1.333   1.348   1.374   1.349   1.321   1.346   1.347   1.355   1.349   1.332   1.342   1.343   1.351   1.362   1.370   1.358   1.348   1.347   1.344   1.333   1.326   1.337   1.331   1.323   1.321   1.331
    22.60    1.337   1.337   1.341   1.338   1.317   1.324   1.327   1.333   1.334   1.337   1.334   1.335   1.334   1.344   1.343   1.343   1.338   1.351   1.352   1.357   1.348   1.355   1.336   1.332   1.339   1.345   1.354   1.335   1.339   1.337   1.319   1.315   1.305

   Height   Standard deviation at grid points for the w component:
   152.60    1.033   1.033   1.029   1.042   1.053   1.056   1.059   1.060   1.050   1.041   1.048   1.035   1.057   1.057   1.077   1.091   1.075   1.084   1.094   1.093   1.111   1.106   1.112   1.107   1.088   1.091   1.079   1.076   1.084   1.078   1.064   1.070   1.067
   148.54    1.027   1.025   1.045   1.053   1.048   1.061   1.064   1.054   1.041   1.034   1.047   1.040   1.055   1.062   1.078   1.078   1.079   1.079   1.086   1.084   1.101   1.103   1.105   1.091   1.086   1.080   1.063   1.076   1.089   1.078   1.065   1.069   1.065
   144.48    1.026   1.039   1.042   1.047   1.035   1.062   1.055   1.054   1.046   1.036   1.038   1.043   1.042   1.054   1.063   1.084   1.087   1.078   1.066   1.070   1.077   1.087   1.104   1.098   1.084   1.077   1.079   1.075   1.086   1.084   1.075   1.068   1.068
   140.41    1.038   1.029   1.037   1.037   1.040   1.063   1.062   1.067   1.050   1.044   1.037   1.051   1.032   1.054   1.069   1.075   1.079   1.064   1.055   1.071   1.086   1.088   1.096   1.091   1.094   1.087   1.078   1.064   1.065   1.060   1.059   1.072   1.056
   136.35    1.040   1.029   1.045   1.025   1.046   1.053   1.062   1.064   1.065   1.059   1.057   1.048   1.055   1.051   1.055   1.049   1.069   1.071   1.073   1.057   1.074   1.090   1.092   1.085   1.079   1.079   1.072   1.048   1.062   1.060   1.053   1.051   1.054
   132.29    1.028   1.038   1.045   1.039   1.043   1.042   1.035   1.049   1.062   1.063   1.071   1.053   1.050   1.039   1.048   1.060   1.058   1.075   1.062   1.065   1.059   1.084   1.078   1.077   1.075   1.070   1.059   1.053   1.066   1.063   1.042   1.043   1.055
   128.23    1.050   1.041   1.040   1.046   1.043   1.040   1.047   1.042   1.051   1.069   1.065   1.058   1.045   1.038   1.034   1.056   1.064   1.072   1.066   1.056   1.058   1.068   1.079   1.078   1.083   1.066   1.056   1.059   1.061   1.048   1.047   1.047   1.049
   124.16    1.056   1.047   1.044   1.034   1.025   1.032   1.031   1.039   1.056   1.066   1.067   1.052   1.043   1.043   1.048   1.055   1.056   1.061   1.058   1.051   1.071   1.074   1.072   1.070   1.059   1.066   1.069   1.055   1.055   1.060   1.055   1.051   1.051
   120.10    1.051   1.054   1.053   1.043   1.043   1.021   1.039   1.059   1.063   1.074   1.067   1.069   1.050   1.062   1.060   1.078   1.062   1.074   1.069   1.049   1.070   1.083   1.082   1.078   1.070   1.056   1.057   1.048   1.052   1.060   1.053   1.043   1.034
   116.04    1.064   1.046   1.060   1.046   1.034   1.033   1.060   1.066   1.070   1.076   1.066   1.067   1.068   1.068   1.061   1.060   1.070   1.072   1.073   1.072   1.081   1.081   1.069   1.073   1.067   1.057   1.050   1.053   1.064   1.047   1.048   1.048   1.054
   111.98    1.071   1.062   1.051   1.052   1.048   1.051   1.065   1.077   1.070   1.052   1.050   1.080   1.075   1.059   1.058   1.060   1.063   1.070   1.085   1.082   1.082   1.084   1.083   1.052   1.055   1.061   1.055   1.052   1.047   1.046   1.057   1.070   1.068
   107.91    1.065   1.066   1.063   1.056   1.049   1.059   1.063   1.072   1.068   1.050   1.050   1.070   1.079   1.066   1.055   1.058   1.060   1.069   1.081   1.079   1.074   1.090   1.097   1.083   1.065   1.079   1.066   1.049   1.048   1.047   1.046   1.060   1.072
   103.85    1.068   1.068   1.070   1.067   1.079   1.058   1.069   1.076   1.055   1.054   1.048   1.066   1.076   1.059   1.062   1.058   1.066   1.077   1.075   1.088   1.094   1.089   1.107   1.105   1.084   1.079   1.058   1.043   1.051   1.049   1.042   1.053   1.050
    99.79    1.064   1.068   1.065   1.061   1.070   1.064   1.078   1.075   1.059   1.063   1.061   1.061   1.065   1.068   1.061   1.071   1.076   1.072   1.076   1.090   1.078   1.099   1.113   1.104   1.096   1.081   1.062   1.046   1.052   1.051   1.044   1.058   1.039
    95.73    1.075   1.059   1.057   1.063   1.066   1.068   1.080   1.072   1.062   1.055   1.063   1.065   1.076   1.085   1.069   1.069   1.061   1.065   1.062   1.067   1.074   1.086   1.107   1.095   1.087   1.080   1.071   1.064   1.044   1.048   1.038   1.045   1.033
    91.66    1.066   1.052   1.060   1.070   1.072   1.071   1.075   1.065   1.065   1.058   1.059   1.063   1.080   1.100   1.081   1.072   1.076   1.060   1.070   1.094   1.086   1.085   1.086   1.080   1.074   1.072   1.069   1.052   1.040   1.029   1.035   1.026   1.050
    87.60    1.059   1.060   1.065   1.074   1.078   1.064   1.057   1.065   1.061   1.057   1.060   1.057   1.066   1.077   1.074   1.072   1.077   1.080   1.067   1.071   1.078   1.075   1.074   1.061   1.067   1.054   1.041   1.036   1.033   1.029   1.047   1.035   1.039
    83.54    1.064   1.073   1.069   1.078   1.089   1.074   1.056   1.062   1.046   1.063   1.057   1.042   1.057   1.070   1.066   1.068   1.089   1.088   1.075   1.069   1.081   1.073   1.081   1.074   1.057   1.041   1.044   1.034   1.032   1.039   1.032   1.016   1.048
    79.48    1.074   1.074   1.071   1.070   1.083   1.073   1.077   1.062   1.063   1.056   1.055   1.065   1.045   1.061   1.058   1.076   1.082   1.071   1.063   1.057   1.060   1.064   1.073   1.056   1.049   1.037   1.051   1.032   1.036   1.034   1.024   1.016   1.027
    75.41    1.079   1.061   1.068   1.069   1.081   1.074   1.086   1.070   1.073   1.061   1.055   1.066   1.056   1.048   1.058   1.071   1.068   1.060   1.062   1.053   1.050   1.048   1.052   1.046   1.044   1.026   1.035   1.033   1.044   1.039   1.026   1.026   1.028
    71.35    1.067   1.072   1.062   1.067   1.066   1.066   1.079   1.069   1.052   1.061   1.053   1.063   1.061   1.066   1.064   1.076   1.066   1.057   1.041   1.048   1.047   1.050   1.059   1.063   1.056   1.038   1.035   1.031   1.040   1.048   1.042   1.035   1.041
    67.29    1.059   1.053   1.054   1.061   1.067   1.082   1.060   1.059   1.056   1.062   1.051   1.042   1.061   1.061   1.065   1.068   1.057   1.051   1.035   1.048   1.056   1.056   1.051   1.046   1.060   1.046   1.043   1.035   1.037   1.041   1.037   1.030   1.029
    63.23    1.058   1.053   1.047   1.067   1.073   1.070   1.063   1.062   1.071   1.072   1.055   1.052   1.046   1.056   1.074   1.072   1.069   1.051   1.058   1.061   1.066   1.054   1.053   1.054   1.058   1.065   1.067   1.048   1.046   1.036   1.026   1.030   1.025
    59.16    1.056   1.064   1.059   1.076   1.058   1.066   1.060   1.058   1.063   1.066   1.066   1.063   1.061   1.053   1.067   1.070   1.064   1.065   1.054   1.060   1.057   1.050   1.058   1.038   1.053   1.068   1.066   1.070   1.070   1.054   1.046   1.030   1.029
    55.10    1.062   1.049   1.060   1.059   1.060   1.066   1.060   1.067   1.065   1.057   1.055   1.047   1.049   1.050   1.058   1.048   1.053   1.048   1.050   1.062   1.051   1.048   1.055   1.059   1.054   1.068   1.075   1.068   1.060   1.059   1.050   1.039   1.030
    51.04    1.062   1.042   1.056   1.078   1.074   1.074   1.068   1.066   1.050   1.062   1.050   1.040   1.039   1.034   1.051   1.038   1.047   1.048   1.044   1.055   1.059   1.053   1.061   1.066   1.064   1.068   1.071   1.069   1.061   1.053   1.053   1.051   1.043
    46.98    1.064   1.058   1.058   1.077   1.059   1.059   1.056   1.068   1.069   1.064   1.058   1.056   1.040   1.037   1.032   1.042   1.048   1.055   1.059   1.048   1.042   1.036   1.054   1.069   1.060   1.074   1.079   1.063   1.054   1.057   1.062   1.051   1.056
    42.91    1.051   1.040   1.063   1.068   1.058   1.049   1.050   1.054   1.055   1.066   1.053   1.055   1.058   1.047   1.039   1.042   1.051   1.049   1.054   1.044   1.027   1.039   1.038   1.051   1.067   1.062   1.063   1.060   1.053   1.054   1.060   1.063   1.051
    38.85    1.040   1.052   1.060   1.057   1.061   1.048   1.046   1.049   1.050   1.065   1.055   1.054   1.047   1.049   1.046   1.045   1.041   1.040   1.051   1.045   1.045   1.054   1.057   1.061   1.056   1.056   1.072   1.065   1.060   1.063   1.075   1.049   1.046
    34.79    1.055   1.055   1.063   1.068   1.056   1.059   1.046   1.050   1.064   1.052   1.046   1.054   1.045   1.043   1.038   1.034   1.047   1.034   1.044   1.035   1.038   1.039   1.050   1.061   1.060   1.052   1.060   1.059   1.062   1.074   1.072   1.063   1.059
    30.73    1.044   1.057   1.058   1.054   1.044   1.047   1.045   1.046   1.042   1.038   1.059   1.048   1.035   1.039   1.043   1.032   1.026   1.046   1.040   1.040   1.039   1.040   1.041   1.044   1.061   1.049   1.051   1.044   1.057   1.057   1.061   1.056   1.053
    26.66    1.046   1.043   1.044   1.054   1.059   1.048   1.043   1.036   1.034   1.046   1.052   1.037   1.033   1.041   1.046   1.030   1.036   1.044   1.043   1.045   1.051   1.038   1.027   1.046   1.049   1.055   1.053   1.034   1.047   1.049   1.043   1.046   1.042
    22.60    1.043   1.033   1.047   1.052   1.054   1.052   1.047   1.037   1.033   1.040   1.042   1.035   1.033   1.032   1.038   1.033   1.030   1.037   1.030   1.044   1.039   1.030   1.031   1.037   1.047   1.044   1.039   1.032   1.044   1.042   1.034   1.042   1.038

   Mean standard deviation across all grid points:
      u component:    1.792 m/s
      v component:    1.340 m/s
      w component:    1.058 m/s


U-component (X) statistics from the hub grid point:

   Mean =  16.0000 m/s
   TI   =  10.9721 %

Nyquist frequency of turbulent wind field =        10.000 Hz


Processing complete.  2941.6 CPU seconds used.
