
This summary file was generated by TurbSim (v1.06.00, 21-Sep-2012) on 01-Aug-2020 at 20:56:39.


Runtime Options:

   2318573  Random seed #1
    RANLUX  Type of random number generator
         F  Output binary HH turbulence parameters?
         F  Output formatted turbulence parameters?
         F  Output AeroDyn HH files?
         T  Output AeroDyn FF files?
         F  Output BLADED FF files?
         T  Output tower data?
         F  Output formatted FF files?
         F  Output coherent turbulence time step file?
         T  Clockwise rotation when looking downwind?
 0 -  NONE  IEC turbulence models scaled to exact specified standard deviation


Turbine/Model Specifications:

        31  Vertical grid-point matrix dimension
        31  Horizontal grid-point matrix dimension
     0.050  Time step [seconds]
   600.000  Analysis time [seconds]
   600.000  Usable output time [seconds]
    87.600  Hub height [m]
   140.000  Grid height [m]
   140.000  Grid width [m]
     0.000  Vertical flow angle [degrees]
     0.000  Horizontal flow angle [degrees]


Meteorological Boundary Conditions:

    SMOOTH  RISO Smooth Terrain spectral model
       N/A  IEC standard
       N/A  IEC turbulence characteristic
       N/A  IEC turbulence type
       N/A  IEC Extreme Turbulence Model (ETM) "c" parameter [m/s]
       IEC  Wind profile type
    90.000  Reference height [m]
     9.000  Reference wind speed [m/s]
       N/A  Jet height [m]
     0.143  Power law exponent
     0.010  Surface roughness length [m]


Non-IEC Meteorological Boundary Conditions:

    45.000  Site latitude [degrees]
     0.050  Gradient Richardson number
     0.381  Friction or shear velocity [m/s]
       N/A  Mixing layer depth [m]
    -0.145  Mean hub u'w' Reynolds stress
       N/A  Mean hub u'v' Reynolds stress
       N/A  Mean hub v'w' Reynolds stress
(    8.965,  0.00    )  u-component coherence parameters
(    6.724,  0.00    )  v-component coherence parameters
(    6.724,  0.00    )  w-component coherence parameters
     0.000  Coherence exponent


You have requested that the following file(s) be generated:

   unsteady_10min_multi.bts (AeroDyn/TurbSim full-field wind file)


Turbulence Simulation Scaling Parameter Summary:

   Turbulence model used                            =  RISO Smooth Terrain
   Gradient Richardson number                       =    0.050
   Monin-Obukhov (M-O) z/L parameter                =    0.067
   Monin-Obukhov (M-O) length scale                 = 1314.000 m
   Mean wind speed at hub height                    =    8.965 m/s

   Wind profile type                                =  Power law on rotor disk, logarithmic elsewhere
   Power law exponent                               =    0.143
   Mean shear across rotor disk                     =    0.017 (m/s)/m
   Assumed rotor diameter                           =  140.000 m
   Surface roughness length                         =    0.010 m

   Number of time steps in the FFT                  =    12320
   Number of time steps output                      =    12313


Mean Flow Angles:

   Vertical   =   0.0 degrees
   Horizontal =   0.0 degrees

Mean Wind Speed Profile:

   Height    Wind Speed   Horizontal Angle  U-comp (X)   V-comp (Y)   W-comp (Z)
     (m)        (m/s)         (degrees)       (m/s)        (m/s)        (m/s)   
   ------    ----------   ----------------  ----------   ----------   ----------
    157.6        9.55            0.00          9.55         0.00         0.00
    152.9        9.71            0.00          9.71         0.00         0.00
    148.3        9.67            0.00          9.67         0.00         0.00
    143.6        9.62            0.00          9.62         0.00         0.00
    138.9        9.58            0.00          9.58         0.00         0.00
    134.3        9.53            0.00          9.53         0.00         0.00
    129.6        9.48            0.00          9.48         0.00         0.00
    124.9        9.43            0.00          9.43         0.00         0.00
    120.3        9.38            0.00          9.38         0.00         0.00
    115.6        9.33            0.00          9.33         0.00         0.00
    110.9        9.27            0.00          9.27         0.00         0.00
    106.3        9.22            0.00          9.22         0.00         0.00
    101.6        9.16            0.00          9.16         0.00         0.00
     96.9        9.10            0.00          9.10         0.00         0.00
     92.3        9.03            0.00          9.03         0.00         0.00
     87.6        8.97            0.00          8.97         0.00         0.00
     82.9        8.90            0.00          8.90         0.00         0.00
     78.3        8.82            0.00          8.82         0.00         0.00
     73.6        8.74            0.00          8.74         0.00         0.00
     68.9        8.66            0.00          8.66         0.00         0.00
     64.3        8.58            0.00          8.58         0.00         0.00
     59.6        8.48            0.00          8.48         0.00         0.00
     54.9        8.39            0.00          8.39         0.00         0.00
     50.3        8.28            0.00          8.28         0.00         0.00
     45.6        8.17            0.00          8.17         0.00         0.00
     40.9        8.04            0.00          8.04         0.00         0.00
     36.3        7.90            0.00          7.90         0.00         0.00
     31.6        7.75            0.00          7.75         0.00         0.00
     26.9        7.57            0.00          7.57         0.00         0.00
     22.3        7.37            0.00          7.37         0.00         0.00
     17.6        7.13            0.00          7.13         0.00         0.00
     12.9        7.08            0.00          7.08         0.00         0.00
      8.3        6.63            0.00          6.63         0.00         0.00
      3.6        5.81            0.00          5.81         0.00         0.00


Harvested Random Seeds after Generation of the Random Numbers:

    165528440 K1
            0 K2


Scaling statistics from the hub grid point:

   Cross-Component  Scaling Factor
   ---------------  --------------
   u'w'               -0.10964E+00
   u'v'                0.00000E+00
   v'w'                0.00000E+00


Hub-Height Simulated Turbulence Statistical Summary:

   Type of Wind        Min (m/s)   Mean (m/s)    Max (m/s)  Sigma (m/s)       TI (%)
   ----------------    ---------   ----------    ---------  -----------       ------
   Longitudinal (u)         5.99         8.97        12.14        1.045       11.661
   Lateral (v)             -2.48         0.00         2.06        0.755        8.424
   Vertical (w)            -2.06         0.00         2.13        0.594        6.624
   U component              5.99         8.97        12.14        1.045       11.661
   V component             -2.48         0.00         2.06        0.755        8.424
   W component             -2.06         0.00         2.13        0.594        6.624
   Horizontal (U&V)         6.00         9.00        12.14        1.046       11.629
   Total                    6.02         9.02        12.25        1.048       11.623

                       Min Reynolds     Mean Reynolds    Max Reynolds    Correlation
   Product             Stress (m/s)^2   Stress (m/s)^2   Stress (m/s)^2  Coefficient
   ----------------    --------------   --------------   --------------  -----------
   u'w'                     -5.616            -0.145             3.232        -0.234
   u'v'                     -4.770             0.099             4.855         0.125
   v'w'                     -2.366             0.075             3.641         0.167


   Friction Velocity (Ustar)  =      0.381 m/s
   Maximum Instantaneous TKE  =      6.349 (m/s)^2
   Maximum Instantaneous CTKE =      2.943 (m/s)^2


Grid Point Variance Summary:

   Y-coord  -70.00  -65.33  -60.67  -56.00  -51.33  -46.67  -42.00  -37.33  -32.67  -28.00  -23.33  -18.67  -14.00   -9.33   -4.67    0.00    4.67    9.33   14.00   18.67   23.33   28.00   32.67   37.33   42.00   46.67   51.33   56.00   60.67   65.33   70.00

   Height   Standard deviation at grid points for the u component:
   157.60    0.960   0.920   0.998   1.056   1.058   1.050   1.096   1.112   1.087   1.044   1.019   1.037   1.059   1.012   1.022   0.945   0.919   0.881   0.959   1.007   1.022   0.986   0.987   1.020   1.009   1.052   1.018   1.047   1.023   0.981   0.975
   152.93    0.976   0.998   1.044   1.006   1.074   1.059   1.094   1.036   1.032   1.013   1.027   1.076   1.072   0.998   1.030   0.962   0.878   0.919   0.907   0.983   1.021   0.958   1.000   1.003   1.006   1.043   0.981   1.027   1.056   0.974   0.952
   148.27    0.987   0.995   1.003   1.030   1.035   1.072   1.112   1.123   1.072   1.031   1.076   1.126   1.068   1.065   0.965   0.935   0.879   0.911   0.880   0.983   0.966   1.017   1.000   0.986   1.027   1.003   1.004   0.946   0.974   0.967   0.920
   143.60    1.024   0.974   1.024   1.054   1.020   1.053   1.111   1.098   1.069   1.107   1.101   1.152   1.090   1.024   0.955   0.945   0.918   0.944   0.964   0.954   0.986   1.006   1.000   0.991   0.987   0.943   0.952   0.949   0.921   0.936   0.930
   138.93    1.005   1.048   1.084   1.091   1.060   1.098   1.084   1.104   1.083   1.135   1.107   1.113   1.094   1.030   0.983   0.955   0.986   0.987   0.963   1.009   1.093   1.084   1.021   1.057   0.980   0.921   0.946   0.954   0.933   0.957   0.950
   134.27    1.066   1.124   1.107   1.121   1.128   1.113   1.118   1.110   1.071   1.103   1.138   1.141   1.125   1.049   1.048   1.018   0.970   1.009   1.000   1.029   1.055   1.062   1.081   1.080   1.013   0.985   0.961   0.943   0.954   0.951   0.895
   129.60    1.063   1.056   1.063   1.116   1.140   1.118   1.123   1.147   1.112   1.090   1.120   1.121   1.098   1.099   1.075   1.031   0.985   1.013   1.006   1.025   1.018   0.989   1.009   1.041   1.036   1.048   0.972   0.885   0.919   0.908   0.920
   124.93    1.040   1.056   1.010   1.070   1.093   1.121   1.173   1.146   1.141   1.076   1.107   1.106   1.084   1.071   1.061   1.030   1.034   1.026   1.018   1.021   1.027   0.980   0.983   1.000   0.966   0.986   0.981   0.921   0.915   0.956   0.908
   120.27    1.044   1.016   1.064   1.088   1.097   1.152   1.149   1.096   1.074   1.097   1.046   1.121   1.109   1.077   1.054   1.105   1.063   1.055   1.036   1.033   1.028   1.008   0.994   0.970   0.943   0.928   0.933   0.951   0.949   0.987   0.959
   115.60    1.081   1.061   1.079   1.116   1.101   1.122   1.193   1.144   1.079   1.052   1.044   1.089   1.083   1.034   1.006   1.043   1.065   1.096   1.114   1.033   1.028   0.972   0.952   0.953   0.907   0.883   0.928   0.948   0.949   0.968   0.949
   110.93    1.081   1.114   1.105   1.129   1.116   1.175   1.162   1.097   1.105   1.102   1.152   1.162   1.100   1.120   1.025   1.010   1.041   1.100   1.097   1.084   1.040   0.964   0.923   0.985   0.902   0.900   0.893   0.945   0.970   0.980   0.964
   106.27    1.111   1.104   1.138   1.156   1.143   1.084   1.096   1.134   1.160   1.139   1.164   1.181   1.145   1.099   1.082   1.019   1.005   1.051   1.123   1.122   1.057   0.996   0.948   0.965   0.919   0.863   0.956   0.968   0.951   0.969   0.980
   101.60    1.082   1.079   1.119   1.142   1.126   1.100   1.103   1.137   1.131   1.122   1.139   1.182   1.173   1.109   1.124   1.074   1.103   1.085   1.140   1.105   1.038   1.042   0.992   1.022   0.983   0.948   0.968   0.955   0.952   0.947   0.947
    96.93    1.110   1.083   1.102   1.078   1.094   1.108   1.104   1.117   1.080   1.116   1.123   1.128   1.118   1.150   1.111   1.110   1.180   1.117   1.150   1.085   1.033   1.063   1.012   1.026   0.943   0.912   0.956   0.976   0.946   0.961   0.934
    92.27    1.119   1.137   1.119   1.070   1.105   1.161   1.157   1.142   1.071   1.044   1.107   1.092   1.094   1.040   1.087   1.106   1.105   1.062   1.100   1.091   1.103   1.047   1.067   1.034   0.931   0.904   0.931   0.965   0.927   0.935   0.930
    87.60    1.143   1.155   1.148   1.153   1.126   1.147   1.136   1.096   1.088   1.063   1.075   1.075   1.074   1.048   1.037   1.045   1.084   1.082   1.084   1.084   1.039   1.073   1.072   1.078   0.965   0.927   0.954   0.974   0.954   0.915   0.908
    82.93    1.124   1.177   1.150   1.181   1.177   1.155   1.168   1.135   1.043   1.090   1.070   0.998   1.077   1.099   1.031   1.091   1.115   1.129   1.142   1.076   1.068   1.071   1.062   0.963   1.020   0.991   0.953   0.986   0.946   0.923   0.867
    78.27    1.118   1.146   1.166   1.143   1.176   1.236   1.193   1.152   1.130   1.106   1.005   1.004   1.066   1.024   1.044   1.056   1.110   1.143   1.157   1.094   1.090   1.064   1.026   0.993   0.988   0.975   0.965   0.970   0.941   0.920   0.917
    73.60    1.184   1.163   1.212   1.211   1.251   1.205   1.203   1.161   1.139   1.058   0.974   0.990   1.003   1.037   1.005   1.026   1.084   1.146   1.150   1.156   1.099   1.065   1.031   1.026   0.996   0.977   0.978   0.957   0.918   0.928   0.966
    68.93    1.158   1.187   1.173   1.236   1.232   1.200   1.178   1.122   1.069   1.039   0.989   0.985   0.992   1.009   1.031   1.032   1.076   1.104   1.099   1.115   1.084   1.028   1.034   1.081   1.033   1.028   0.980   0.934   0.982   0.955   0.924
    64.27    1.100   1.170   1.191   1.197   1.175   1.171   1.226   1.183   1.111   1.019   0.986   0.994   0.964   0.987   1.066   1.029   1.080   1.072   0.998   1.041   1.028   1.007   0.987   1.060   1.082   1.049   1.014   0.937   0.931   0.960   0.982
    59.60    1.118   1.181   1.170   1.171   1.173   1.252   1.187   1.179   1.098   1.026   0.964   0.934   0.965   0.963   1.065   1.031   1.033   1.052   1.032   1.002   0.993   0.990   1.015   0.979   1.079   1.094   1.038   0.995   0.990   0.954   0.975
    54.93    1.118   1.136   1.147   1.128   1.172   1.175   1.191   1.156   1.079   0.985   0.945   0.954   0.938   1.001   0.999   1.025   1.060   1.029   1.046   1.043   1.041   1.010   1.015   1.047   1.067   1.094   1.046   1.020   1.013   1.025   1.062
    50.27    1.141   1.139   1.092   1.150   1.098   1.112   1.118   1.039   1.019   0.999   0.954   0.931   0.980   0.994   0.950   0.983   1.025   1.004   1.031   0.967   0.993   0.999   1.011   1.035   1.058   1.088   1.043   1.030   1.045   1.033   1.058
    45.60    1.099   1.137   1.099   1.106   1.116   1.073   1.072   1.024   0.982   0.967   0.953   0.931   0.946   0.946   0.930   0.956   0.959   0.956   1.024   0.959   0.972   0.988   0.980   0.973   0.995   1.041   1.049   1.014   1.014   1.047   0.976
    40.93    1.110   1.119   1.095   1.110   1.111   1.083   1.026   1.047   1.030   0.997   0.994   0.975   0.954   0.940   0.913   0.963   0.939   0.965   0.992   0.990   0.954   0.944   0.965   1.022   0.999   1.005   1.014   0.998   1.030   1.048   1.002
    36.27    1.127   1.099   1.047   1.038   1.063   1.036   1.014   1.031   1.002   0.968   0.976   1.033   1.076   1.009   0.985   0.991   0.954   0.957   0.996   1.012   1.010   1.050   1.042   1.026   0.977   0.942   0.953   0.981   0.984   1.029   1.054
    31.60    1.045   1.029   1.060   1.041   1.028   1.023   1.037   1.032   1.007   0.957   0.984   1.019   1.015   1.016   0.969   1.024   1.004   0.993   1.004   1.041   1.032   1.009   1.032   1.079   0.996   0.932   0.963   0.942   0.970   1.017   1.004
    26.93    1.055   1.024   1.023   1.020   1.050   1.054   1.012   0.981   1.020   0.984   1.003   1.064   1.051   1.077   1.094   1.033   1.044   1.038   1.008   1.039   1.038   1.015   1.008   1.050   0.970   0.978   0.959   1.002   0.991   0.985   1.019
    22.27    1.018   1.039   0.990   1.000   1.009   0.948   0.976   0.957   0.946   0.947   0.969   1.029   1.079   1.061   1.084   1.029   1.024   1.062   1.061   1.038   0.978   1.000   0.934   0.988   0.985   0.963   0.988   0.984   0.998   0.962   0.976
    17.60    0.984   0.994   0.972   0.975   0.955   0.926   0.912   0.920   0.987   1.003   1.012   1.059   1.061   1.110   1.092   1.073   1.051   1.059   1.062   1.051   1.065   0.977   0.968   0.976   0.924   0.970   0.980   0.966   0.961   0.957   0.970

   Height   Standard deviation at grid points for the v component:
   157.60    0.629   0.637   0.641   0.680   0.662   0.639   0.665   0.680   0.697   0.681   0.688   0.624   0.625   0.651   0.664   0.663   0.636   0.649   0.659   0.660   0.663   0.656   0.637   0.610   0.634   0.655   0.668   0.678   0.671   0.676   0.647
   152.93    0.648   0.656   0.668   0.655   0.665   0.640   0.652   0.661   0.668   0.681   0.625   0.624   0.634   0.643   0.677   0.670   0.654   0.662   0.687   0.647   0.637   0.625   0.627   0.622   0.631   0.653   0.661   0.684   0.679   0.677   0.674
   148.27    0.643   0.674   0.665   0.659   0.642   0.657   0.674   0.656   0.657   0.664   0.636   0.646   0.653   0.659   0.657   0.666   0.645   0.665   0.659   0.638   0.642   0.618   0.629   0.626   0.634   0.631   0.646   0.666   0.681   0.686   0.696
   143.60    0.695   0.701   0.680   0.686   0.657   0.633   0.643   0.650   0.639   0.661   0.648   0.679   0.657   0.687   0.682   0.667   0.684   0.666   0.652   0.643   0.649   0.655   0.614   0.623   0.610   0.606   0.637   0.643   0.665   0.701   0.714
   138.93    0.703   0.702   0.708   0.680   0.657   0.651   0.638   0.667   0.603   0.612   0.645   0.655   0.661   0.658   0.676   0.686   0.685   0.664   0.641   0.647   0.635   0.658   0.626   0.604   0.617   0.605   0.634   0.634   0.632   0.675   0.692
   134.27    0.715   0.691   0.690   0.668   0.639   0.623   0.634   0.600   0.587   0.602   0.650   0.635   0.646   0.672   0.696   0.718   0.700   0.664   0.631   0.649   0.672   0.645   0.663   0.639   0.619   0.649   0.663   0.637   0.655   0.699   0.687
   129.60    0.681   0.657   0.682   0.649   0.611   0.616   0.614   0.573   0.599   0.606   0.624   0.635   0.653   0.666   0.712   0.735   0.716   0.683   0.649   0.701   0.712   0.685   0.672   0.668   0.659   0.657   0.667   0.660   0.663   0.687   0.669
   124.93    0.680   0.659   0.627   0.616   0.614   0.647   0.634   0.619   0.606   0.610   0.630   0.652   0.654   0.676   0.690   0.721   0.703   0.685   0.689   0.689   0.695   0.678   0.658   0.671   0.678   0.650   0.634   0.659   0.670   0.675   0.702
   120.27    0.657   0.619   0.640   0.620   0.634   0.631   0.638   0.617   0.625   0.606   0.653   0.666   0.683   0.687   0.667   0.681   0.680   0.676   0.691   0.681   0.697   0.676   0.673   0.675   0.686   0.674   0.650   0.637   0.661   0.691   0.713
   115.60    0.693   0.632   0.622   0.644   0.634   0.621   0.637   0.656   0.634   0.649   0.672   0.708   0.726   0.677   0.679   0.676   0.668   0.679   0.689   0.708   0.669   0.672   0.664   0.679   0.686   0.694   0.654   0.656   0.678   0.675   0.684
   110.93    0.662   0.652   0.667   0.658   0.645   0.637   0.635   0.672   0.660   0.648   0.660   0.689   0.714   0.706   0.674   0.664   0.641   0.633   0.670   0.681   0.671   0.665   0.653   0.675   0.678   0.648   0.691   0.662   0.672   0.686   0.687
   106.27    0.668   0.692   0.648   0.627   0.625   0.643   0.671   0.683   0.682   0.679   0.643   0.685   0.727   0.687   0.680   0.635   0.643   0.642   0.668   0.664   0.687   0.682   0.682   0.670   0.660   0.666   0.677   0.684   0.700   0.688   0.684
   101.60    0.661   0.643   0.650   0.679   0.662   0.665   0.665   0.672   0.683   0.693   0.683   0.694   0.731   0.710   0.678   0.670   0.642   0.650   0.657   0.677   0.676   0.666   0.676   0.672   0.688   0.673   0.709   0.707   0.714   0.725   0.691
    96.93    0.638   0.621   0.670   0.644   0.649   0.652   0.668   0.690   0.702   0.699   0.690   0.694   0.734   0.730   0.729   0.725   0.688   0.678   0.683   0.685   0.658   0.665   0.681   0.665   0.699   0.725   0.696   0.660   0.669   0.670   0.687
    92.27    0.674   0.686   0.666   0.664   0.669   0.683   0.681   0.687   0.657   0.684   0.710   0.700   0.748   0.744   0.750   0.732   0.703   0.675   0.687   0.699   0.667   0.697   0.666   0.682   0.694   0.676   0.679   0.671   0.699   0.678   0.668
    87.60    0.672   0.684   0.666   0.663   0.688   0.699   0.693   0.702   0.636   0.686   0.683   0.714   0.752   0.784   0.783   0.755   0.755   0.710   0.677   0.689   0.698   0.715   0.695   0.684   0.701   0.667   0.694   0.703   0.691   0.682   0.699
    82.93    0.694   0.685   0.689   0.693   0.717   0.728   0.723   0.706   0.704   0.715   0.719   0.734   0.741   0.763   0.782   0.752   0.763   0.727   0.707   0.688   0.719   0.707   0.696   0.685   0.681   0.685   0.691   0.673   0.673   0.677   0.696
    78.27    0.675   0.696   0.696   0.727   0.736   0.769   0.723   0.715   0.738   0.725   0.737   0.748   0.778   0.758   0.739   0.751   0.763   0.751   0.765   0.680   0.683   0.695   0.707   0.679   0.686   0.672   0.681   0.691   0.714   0.673   0.708
    73.60    0.680   0.704   0.705   0.745   0.769   0.798   0.767   0.757   0.726   0.754   0.744   0.772   0.742   0.775   0.767   0.762   0.750   0.781   0.764   0.736   0.731   0.701   0.706   0.703   0.707   0.680   0.669   0.675   0.717   0.704   0.701
    68.93    0.680   0.720   0.728   0.741   0.764   0.785   0.787   0.757   0.759   0.750   0.739   0.741   0.756   0.768   0.781   0.770   0.780   0.785   0.790   0.764   0.739   0.696   0.707   0.715   0.690   0.678   0.663   0.697   0.689   0.709   0.713
    64.27    0.705   0.715   0.709   0.730   0.755   0.774   0.766   0.737   0.750   0.728   0.758   0.745   0.757   0.781   0.763   0.751   0.771   0.784   0.770   0.775   0.763   0.719   0.709   0.703   0.724   0.728   0.706   0.707   0.724   0.715   0.709
    59.60    0.699   0.693   0.731   0.748   0.763   0.781   0.768   0.751   0.748   0.760   0.761   0.780   0.802   0.791   0.782   0.742   0.751   0.778   0.766   0.772   0.755   0.737   0.716   0.724   0.715   0.742   0.720   0.722   0.728   0.699   0.729
    54.93    0.721   0.704   0.744   0.751   0.747   0.739   0.773   0.778   0.754   0.750   0.741   0.755   0.763   0.757   0.758   0.743   0.738   0.727   0.763   0.797   0.781   0.743   0.723   0.715   0.737   0.730   0.703   0.699   0.703   0.715   0.741
    50.27    0.730   0.763   0.746   0.749   0.748   0.736   0.749   0.762   0.757   0.759   0.730   0.737   0.742   0.742   0.729   0.735   0.737   0.762   0.777   0.780   0.743   0.731   0.703   0.737   0.733   0.704   0.707   0.677   0.719   0.716   0.740
    45.60    0.766   0.787   0.778   0.764   0.761   0.775   0.741   0.743   0.766   0.753   0.726   0.720   0.750   0.709   0.709   0.713   0.717   0.742   0.747   0.743   0.770   0.759   0.730   0.719   0.707   0.689   0.674   0.674   0.672   0.692   0.720
    40.93    0.791   0.811   0.783   0.772   0.793   0.777   0.776   0.769   0.769   0.780   0.741   0.747   0.741   0.717   0.711   0.720   0.706   0.741   0.747   0.751   0.732   0.727   0.744   0.721   0.698   0.706   0.697   0.687   0.661   0.679   0.666
    36.27    0.808   0.796   0.817   0.806   0.781   0.796   0.797   0.794   0.785   0.763   0.769   0.728   0.722   0.714   0.697   0.697   0.705   0.724   0.742   0.752   0.744   0.714   0.728   0.724   0.696   0.682   0.709   0.694   0.682   0.709   0.689
    31.60    0.793   0.814   0.798   0.812   0.786   0.794   0.781   0.790   0.798   0.776   0.770   0.750   0.740   0.732   0.705   0.712   0.706   0.711   0.752   0.762   0.723   0.733   0.714   0.718   0.689   0.712   0.708   0.679   0.691   0.681   0.687
    26.93    0.777   0.792   0.784   0.790   0.783   0.791   0.803   0.822   0.807   0.802   0.804   0.775   0.752   0.738   0.719   0.696   0.729   0.771   0.746   0.750   0.734   0.722   0.717   0.744   0.726   0.707   0.681   0.704   0.712   0.684   0.688
    22.27    0.769   0.784   0.783   0.781   0.802   0.789   0.768   0.805   0.788   0.813   0.785   0.765   0.752   0.750   0.757   0.737   0.738   0.782   0.772   0.759   0.722   0.725   0.730   0.753   0.714   0.718   0.710   0.718   0.716   0.698   0.694
    17.60    0.751   0.757   0.759   0.779   0.783   0.788   0.759   0.783   0.776   0.780   0.762   0.751   0.755   0.762   0.759   0.703   0.729   0.750   0.770   0.767   0.722   0.720   0.723   0.740   0.731   0.717   0.707   0.727   0.720   0.728   0.725

   Height   Standard deviation at grid points for the w component:
   157.60    0.508   0.500   0.503   0.527   0.519   0.522   0.523   0.505   0.520   0.523   0.527   0.548   0.525   0.528   0.552   0.567   0.568   0.541   0.552   0.563   0.581   0.598   0.614   0.608   0.598   0.582   0.585   0.594   0.588   0.550   0.553
   152.93    0.487   0.494   0.513   0.539   0.539   0.534   0.501   0.494   0.518   0.519   0.528   0.532   0.546   0.544   0.556   0.563   0.556   0.557   0.551   0.562   0.577   0.599   0.615   0.599   0.618   0.621   0.613   0.606   0.582   0.567   0.555
   148.27    0.495   0.498   0.512   0.527   0.562   0.543   0.524   0.523   0.535   0.535   0.547   0.538   0.541   0.539   0.551   0.538   0.556   0.546   0.551   0.560   0.570   0.579   0.610   0.605   0.618   0.615   0.593   0.574   0.567   0.577   0.552
   143.60    0.538   0.538   0.504   0.520   0.536   0.543   0.548   0.539   0.534   0.554   0.550   0.563   0.537   0.534   0.538   0.541   0.541   0.552   0.547   0.544   0.580   0.548   0.591   0.595   0.591   0.598   0.585   0.594   0.576   0.564   0.527
   138.93    0.524   0.536   0.520   0.511   0.523   0.532   0.572   0.546   0.538   0.543   0.544   0.531   0.532   0.542   0.554   0.532   0.521   0.538   0.524   0.541   0.554   0.553   0.586   0.593   0.587   0.578   0.579   0.554   0.552   0.554   0.533
   134.27    0.536   0.527   0.520   0.530   0.531   0.510   0.538   0.554   0.542   0.558   0.552   0.536   0.538   0.521   0.547   0.519   0.516   0.534   0.538   0.529   0.526   0.561   0.581   0.586   0.587   0.566   0.588   0.550   0.560   0.543   0.542
   129.60    0.539   0.528   0.516   0.551   0.544   0.555   0.517   0.527   0.544   0.559   0.595   0.558   0.561   0.538   0.545   0.535   0.530   0.537   0.540   0.529   0.535   0.555   0.582   0.587   0.573   0.574   0.570   0.572   0.568   0.557   0.554
   124.93    0.548   0.538   0.563   0.555   0.541   0.543   0.559   0.558   0.564   0.562   0.571   0.575   0.575   0.567   0.550   0.563   0.551   0.564   0.543   0.535   0.551   0.550   0.574   0.574   0.571   0.588   0.584   0.556   0.576   0.571   0.551
   120.27    0.570   0.567   0.562   0.581   0.565   0.582   0.560   0.575   0.568   0.571   0.569   0.569   0.589   0.584   0.590   0.578   0.576   0.570   0.558   0.561   0.545   0.543   0.564   0.564   0.558   0.573   0.563   0.586   0.598   0.567   0.551
   115.60    0.583   0.573   0.580   0.598   0.593   0.594   0.575   0.585   0.611   0.572   0.598   0.596   0.589   0.575   0.588   0.575   0.591   0.593   0.577   0.558   0.547   0.561   0.590   0.595   0.562   0.574   0.569   0.587   0.587   0.557   0.561
   110.93    0.574   0.591   0.584   0.580   0.587   0.575   0.564   0.572   0.590   0.603   0.582   0.598   0.607   0.619   0.601   0.600   0.597   0.595   0.582   0.567   0.538   0.555   0.595   0.593   0.569   0.566   0.586   0.565   0.562   0.568   0.572
   106.27    0.579   0.559   0.574   0.596   0.580   0.567   0.580   0.573   0.578   0.600   0.595   0.623   0.623   0.605   0.586   0.597   0.594   0.588   0.576   0.566   0.553   0.570   0.582   0.594   0.579   0.587   0.572   0.557   0.556   0.568   0.580
   101.60    0.552   0.571   0.561   0.586   0.583   0.565   0.563   0.578   0.581   0.610   0.604   0.617   0.621   0.617   0.601   0.607   0.607   0.597   0.573   0.562   0.570   0.578   0.577   0.600   0.593   0.574   0.549   0.552   0.552   0.572   0.585
    96.93    0.582   0.569   0.573   0.566   0.563   0.570   0.542   0.563   0.567   0.584   0.608   0.604   0.613   0.616   0.601   0.613   0.596   0.573   0.559   0.557   0.565   0.563   0.580   0.582   0.569   0.575   0.561   0.541   0.557   0.577   0.580
    92.27    0.562   0.555   0.569   0.546   0.560   0.573   0.542   0.537   0.580   0.582   0.595   0.599   0.620   0.603   0.585   0.607   0.585   0.569   0.565   0.554   0.565   0.574   0.570   0.579   0.553   0.554   0.571   0.552   0.552   0.565   0.553
    87.60    0.559   0.566   0.555   0.554   0.562   0.575   0.551   0.572   0.574   0.603   0.602   0.604   0.593   0.606   0.603   0.594   0.573   0.562   0.538   0.550   0.563   0.578   0.577   0.570   0.549   0.549   0.557   0.566   0.568   0.573   0.563
    82.93    0.576   0.557   0.564   0.574   0.559   0.577   0.574   0.566   0.585   0.615   0.600   0.577   0.611   0.594   0.618   0.589   0.590   0.562   0.567   0.554   0.570   0.573   0.569   0.549   0.569   0.575   0.574   0.586   0.559   0.581   0.572
    78.27    0.580   0.586   0.587   0.574   0.589   0.563   0.575   0.596   0.594   0.589   0.589   0.579   0.618   0.604   0.606   0.590   0.586   0.565   0.557   0.553   0.558   0.564   0.556   0.561   0.559   0.568   0.595   0.605   0.586   0.570   0.570
    73.60    0.575   0.601   0.575   0.584   0.574   0.585   0.606   0.626   0.604   0.600   0.576   0.592   0.600   0.590   0.587   0.562   0.564   0.585   0.540   0.549   0.556   0.570   0.560   0.566   0.554   0.587   0.588   0.600   0.572   0.564   0.551
    68.93    0.589   0.591   0.575   0.580   0.614   0.634   0.631   0.627   0.602   0.578   0.585   0.581   0.553   0.581   0.569   0.552   0.560   0.578   0.554   0.565   0.557   0.572   0.572   0.589   0.585   0.573   0.585   0.596   0.578   0.565   0.561
    64.27    0.577   0.586   0.599   0.582   0.598   0.618   0.618   0.599   0.599   0.575   0.578   0.564   0.557   0.564   0.576   0.561   0.568   0.578   0.569   0.562   0.581   0.581   0.604   0.596   0.580   0.609   0.592   0.582   0.556   0.551   0.562
    59.60    0.588   0.584   0.597   0.596   0.582   0.595   0.600   0.597   0.578   0.590   0.566   0.557   0.552   0.555   0.580   0.586   0.572   0.578   0.572   0.572   0.572   0.580   0.588   0.605   0.597   0.614   0.590   0.586   0.570   0.573   0.579
    54.93    0.590   0.580   0.587   0.593   0.590   0.587   0.567   0.575   0.582   0.589   0.576   0.559   0.561   0.565   0.571   0.550   0.581   0.590   0.593   0.589   0.571   0.585   0.584   0.589   0.578   0.597   0.598   0.571   0.570   0.568   0.574
    50.27    0.591   0.592   0.574   0.609   0.596   0.552   0.557   0.579   0.583   0.574   0.567   0.552   0.567   0.564   0.549   0.560   0.582   0.600   0.577   0.591   0.575   0.572   0.579   0.571   0.580   0.582   0.610   0.573   0.568   0.560   0.572
    45.60    0.591   0.588   0.598   0.597   0.587   0.565   0.544   0.572   0.583   0.565   0.560   0.556   0.591   0.588   0.585   0.558   0.564   0.583   0.591   0.581   0.579   0.573   0.581   0.572   0.595   0.591   0.591   0.569   0.557   0.561   0.561
    40.93    0.571   0.593   0.616   0.605   0.599   0.596   0.574   0.570   0.576   0.577   0.573   0.587   0.603   0.593   0.593   0.589   0.580   0.582   0.585   0.566   0.576   0.567   0.602   0.597   0.582   0.581   0.565   0.567   0.562   0.579   0.575
    36.27    0.583   0.589   0.602   0.596   0.607   0.610   0.597   0.569   0.571   0.567   0.581   0.565   0.583   0.584   0.594   0.591   0.567   0.584   0.592   0.594   0.593   0.575   0.592   0.602   0.585   0.575   0.561   0.566   0.576   0.581   0.577
    31.60    0.594   0.584   0.595   0.596   0.596   0.609   0.612   0.584   0.576   0.577   0.567   0.563   0.561   0.589   0.590   0.596   0.599   0.610   0.598   0.591   0.594   0.584   0.576   0.579   0.583   0.590   0.571   0.584   0.586   0.590   0.577
    26.93    0.601   0.595   0.604   0.598   0.604   0.593   0.608   0.594   0.593   0.575   0.570   0.564   0.562   0.566   0.592   0.587   0.580   0.608   0.598   0.592   0.569   0.597   0.584   0.583   0.587   0.558   0.571   0.584   0.595   0.592   0.593
    22.27    0.597   0.593   0.615   0.601   0.587   0.583   0.592   0.590   0.575   0.571   0.569   0.566   0.558   0.561   0.563   0.566   0.589   0.590   0.590   0.581   0.590   0.589   0.591   0.601   0.583   0.567   0.575   0.564   0.584   0.607   0.612
    17.60    0.583   0.582   0.591   0.588   0.582   0.587   0.589   0.581   0.596   0.578   0.579   0.577   0.569   0.581   0.568   0.585   0.571   0.589   0.593   0.585   0.576   0.580   0.570   0.570   0.586   0.578   0.581   0.577   0.582   0.601   0.617

   Mean standard deviation across all grid points:
      u component:    1.038 m/s
      v component:    0.701 m/s
      w component:    0.573 m/s


U-component (X) statistics from the hub grid point:

   Mean =   8.9653 m/s
   TI   =  11.6614 %

Nyquist frequency of turbulent wind field =        10.000 Hz


Processing complete.  320.22 CPU seconds used.
