
This summary file was generated by TurbSim (v1.06.00, 21-Sep-2012) on 22-Jul-2020 at 21:40:12.


Runtime Options:

   2318573  Random seed #1
    RANLUX  Type of random number generator
         F  Output binary HH turbulence parameters?
         F  Output formatted turbulence parameters?
         F  Output AeroDyn HH files?
         T  Output AeroDyn FF files?
         F  Output BLADED FF files?
         T  Output tower data?
         F  Output formatted FF files?
         F  Output coherent turbulence time step file?
         T  Clockwise rotation when looking downwind?
 0 -  NONE  IEC turbulence models scaled to exact specified standard deviation


Turbine/Model Specifications:

        31  Vertical grid-point matrix dimension
        31  Horizontal grid-point matrix dimension
     0.050  Time step [seconds]
   600.000  Analysis time [seconds]
   600.000  Usable output time [seconds]
    87.600  Hub height [m]
   140.000  Grid height [m]
   140.000  Grid width [m]
     0.000  Vertical flow angle [degrees]
     0.000  Horizontal flow angle [degrees]


Meteorological Boundary Conditions:

    SMOOTH  RISO Smooth Terrain spectral model
       N/A  IEC standard
       N/A  IEC turbulence characteristic
       N/A  IEC turbulence type
       N/A  IEC Extreme Turbulence Model (ETM) "c" parameter [m/s]
       IEC  Wind profile type
    90.000  Reference height [m]
     7.000  Reference wind speed [m/s]
       N/A  Jet height [m]
     0.143  Power law exponent
     0.010  Surface roughness length [m]


Non-IEC Meteorological Boundary Conditions:

    45.000  Site latitude [degrees]
     0.050  Gradient Richardson number
     0.297  Friction or shear velocity [m/s]
       N/A  Mixing layer depth [m]
    -0.088  Mean hub u'w' Reynolds stress
       N/A  Mean hub u'v' Reynolds stress
       N/A  Mean hub v'w' Reynolds stress
(    6.973,  0.00    )  u-component coherence parameters
(    5.230,  0.00    )  v-component coherence parameters
(    5.230,  0.00    )  w-component coherence parameters
     0.000  Coherence exponent


You have requested that the following file(s) be generated:

   unsteady_10min_7mps.bts (AeroDyn/TurbSim full-field wind file)


Turbulence Simulation Scaling Parameter Summary:

   Turbulence model used                            =  RISO Smooth Terrain
   Gradient Richardson number                       =    0.050
   Monin-Obukhov (M-O) z/L parameter                =    0.067
   Monin-Obukhov (M-O) length scale                 = 1314.000 m
   Mean wind speed at hub height                    =    6.973 m/s

   Wind profile type                                =  Power law on rotor disk, logarithmic elsewhere
   Power law exponent                               =    0.143
   Mean shear across rotor disk                     =    0.013 (m/s)/m
   Assumed rotor diameter                           =  140.000 m
   Surface roughness length                         =    0.010 m

   Number of time steps in the FFT                  =    12420
   Number of time steps output                      =    12402


Mean Flow Angles:

   Vertical   =   0.0 degrees
   Horizontal =   0.0 degrees

Mean Wind Speed Profile:

   Height    Wind Speed   Horizontal Angle  U-comp (X)   V-comp (Y)   W-comp (Z)
     (m)        (m/s)         (degrees)       (m/s)        (m/s)        (m/s)   
   ------    ----------   ----------------  ----------   ----------   ----------
    157.6        7.42            0.00          7.42         0.00         0.00
    152.9        7.55            0.00          7.55         0.00         0.00
    148.3        7.52            0.00          7.52         0.00         0.00
    143.6        7.48            0.00          7.48         0.00         0.00
    138.9        7.45            0.00          7.45         0.00         0.00
    134.3        7.41            0.00          7.41         0.00         0.00
    129.6        7.37            0.00          7.37         0.00         0.00
    124.9        7.34            0.00          7.34         0.00         0.00
    120.3        7.30            0.00          7.30         0.00         0.00
    115.6        7.26            0.00          7.26         0.00         0.00
    110.9        7.21            0.00          7.21         0.00         0.00
    106.3        7.17            0.00          7.17         0.00         0.00
    101.6        7.12            0.00          7.12         0.00         0.00
     96.9        7.07            0.00          7.07         0.00         0.00
     92.3        7.02            0.00          7.02         0.00         0.00
     87.6        6.97            0.00          6.97         0.00         0.00
     82.9        6.92            0.00          6.92         0.00         0.00
     78.3        6.86            0.00          6.86         0.00         0.00
     73.6        6.80            0.00          6.80         0.00         0.00
     68.9        6.74            0.00          6.74         0.00         0.00
     64.3        6.67            0.00          6.67         0.00         0.00
     59.6        6.60            0.00          6.60         0.00         0.00
     54.9        6.52            0.00          6.52         0.00         0.00
     50.3        6.44            0.00          6.44         0.00         0.00
     45.6        6.35            0.00          6.35         0.00         0.00
     40.9        6.25            0.00          6.25         0.00         0.00
     36.3        6.15            0.00          6.15         0.00         0.00
     31.6        6.03            0.00          6.03         0.00         0.00
     26.9        5.89            0.00          5.89         0.00         0.00
     22.3        5.73            0.00          5.73         0.00         0.00
     17.6        5.54            0.00          5.54         0.00         0.00
     12.9        5.50            0.00          5.50         0.00         0.00
      8.3        5.16            0.00          5.16         0.00         0.00
      3.6        4.52            0.00          4.52         0.00         0.00


Harvested Random Seeds after Generation of the Random Numbers:

    166872015 K1
            0 K2


Scaling statistics from the hub grid point:

   Cross-Component  Scaling Factor
   ---------------  --------------
   u'w'               -0.12126E+00
   u'v'                0.00000E+00
   v'w'                0.00000E+00


Hub-Height Simulated Turbulence Statistical Summary:

   Type of Wind        Min (m/s)   Mean (m/s)    Max (m/s)  Sigma (m/s)       TI (%)
   ----------------    ---------   ----------    ---------  -----------       ------
   Longitudinal (u)         4.33         6.97         9.70        0.676        9.697
   Lateral (v)             -1.88         0.00         1.84        0.586        8.408
   Vertical (w)            -1.40         0.00         1.56        0.451        6.468
   U component              4.33         6.97         9.70        0.676        9.697
   V component             -1.88         0.00         1.84        0.586        8.408
   W component             -1.40         0.00         1.56        0.451        6.468
   Horizontal (U&V)         4.43         7.00         9.76        0.671        9.594
   Total                    4.52         7.01         9.77        0.667        9.508

                       Min Reynolds     Mean Reynolds    Max Reynolds    Correlation
   Product             Stress (m/s)^2   Stress (m/s)^2   Stress (m/s)^2  Coefficient
   ----------------    --------------   --------------   --------------  -----------
   u'w'                     -3.143            -0.088             1.272        -0.289
   u'v'                     -3.653            -0.039             1.389        -0.098
   v'w'                     -2.071            -0.013             1.672        -0.050


   Friction Velocity (Ustar)  =      0.297 m/s
   Maximum Instantaneous TKE  =      4.639 (m/s)^2
   Maximum Instantaneous CTKE =      2.262 (m/s)^2


Grid Point Variance Summary:

   Y-coord  -70.00  -65.33  -60.67  -56.00  -51.33  -46.67  -42.00  -37.33  -32.67  -28.00  -23.33  -18.67  -14.00   -9.33   -4.67    0.00    4.67    9.33   14.00   18.67   23.33   28.00   32.67   37.33   42.00   46.67   51.33   56.00   60.67   65.33   70.00

   Height   Standard deviation at grid points for the u component:
   157.60    0.635   0.659   0.646   0.688   0.685   0.694   0.699   0.714   0.773   0.746   0.697   0.699   0.684   0.714   0.739   0.692   0.697   0.670   0.649   0.614   0.627   0.632   0.697   0.731   0.741   0.760   0.708   0.709   0.735   0.777   0.713
   152.93    0.650   0.656   0.661   0.689   0.668   0.732   0.767   0.744   0.737   0.763   0.716   0.730   0.738   0.763   0.743   0.748   0.658   0.643   0.649   0.614   0.615   0.625   0.641   0.702   0.688   0.719   0.734   0.737   0.747   0.756   0.708
   148.27    0.698   0.674   0.670   0.677   0.709   0.736   0.745   0.737   0.766   0.733   0.738   0.697   0.719   0.763   0.776   0.747   0.652   0.618   0.598   0.604   0.657   0.666   0.662   0.661   0.685   0.711   0.687   0.742   0.759   0.735   0.724
   143.60    0.683   0.690   0.677   0.661   0.691   0.712   0.706   0.723   0.712   0.740   0.740   0.670   0.693   0.705   0.729   0.691   0.690   0.621   0.618   0.591   0.593   0.665   0.697   0.655   0.683   0.698   0.669   0.729   0.763   0.732   0.691
   138.93    0.665   0.693   0.709   0.672   0.696   0.677   0.703   0.723   0.739   0.723   0.729   0.696   0.683   0.660   0.670   0.703   0.700   0.685   0.656   0.644   0.667   0.675   0.678   0.653   0.687   0.703   0.723   0.736   0.752   0.740   0.761
   134.27    0.635   0.654   0.640   0.651   0.661   0.681   0.684   0.713   0.727   0.727   0.727   0.708   0.673   0.666   0.668   0.705   0.688   0.713   0.734   0.722   0.706   0.716   0.702   0.678   0.735   0.725   0.729   0.743   0.754   0.724   0.714
   129.60    0.624   0.604   0.569   0.600   0.634   0.671   0.696   0.738   0.710   0.696   0.681   0.656   0.688   0.664   0.674   0.657   0.693   0.766   0.806   0.767   0.790   0.768   0.769   0.737   0.731   0.746   0.767   0.728   0.713   0.732   0.743
   124.93    0.587   0.549   0.552   0.558   0.596   0.651   0.661   0.684   0.690   0.711   0.682   0.657   0.649   0.635   0.647   0.679   0.742   0.762   0.817   0.817   0.800   0.789   0.802   0.763   0.702   0.764   0.707   0.724   0.727   0.744   0.762
   120.27    0.579   0.604   0.606   0.573   0.584   0.666   0.631   0.673   0.708   0.687   0.667   0.665   0.640   0.621   0.669   0.705   0.779   0.814   0.808   0.764   0.795   0.793   0.785   0.757   0.748   0.749   0.744   0.756   0.745   0.758   0.765
   115.60    0.607   0.636   0.637   0.634   0.624   0.638   0.615   0.661   0.667   0.696   0.677   0.672   0.657   0.676   0.676   0.736   0.779   0.807   0.800   0.821   0.790   0.810   0.767   0.764   0.744   0.740   0.704   0.730   0.743   0.711   0.770
   110.93    0.614   0.622   0.645   0.641   0.659   0.646   0.640   0.606   0.650   0.673   0.655   0.661   0.693   0.695   0.704   0.721   0.770   0.805   0.793   0.822   0.828   0.794   0.768   0.777   0.736   0.722   0.734   0.724   0.755   0.726   0.771
   106.27    0.624   0.638   0.629   0.642   0.619   0.632   0.635   0.608   0.624   0.614   0.626   0.657   0.627   0.630   0.697   0.723   0.765   0.771   0.777   0.791   0.823   0.762   0.814   0.800   0.750   0.735   0.714   0.701   0.742   0.769   0.767
   101.60    0.623   0.636   0.636   0.603   0.598   0.631   0.625   0.642   0.644   0.641   0.651   0.640   0.619   0.617   0.650   0.723   0.763   0.755   0.785   0.785   0.800   0.758   0.798   0.804   0.760   0.755   0.736   0.738   0.730   0.748   0.771
    96.93    0.612   0.605   0.619   0.601   0.639   0.641   0.628   0.646   0.635   0.635   0.599   0.642   0.649   0.652   0.681   0.722   0.763   0.755   0.770   0.799   0.797   0.771   0.757   0.737   0.733   0.711   0.728   0.758   0.730   0.745   0.753
    92.27    0.570   0.605   0.571   0.597   0.610   0.649   0.655   0.652   0.654   0.641   0.609   0.654   0.684   0.687   0.694   0.718   0.752   0.737   0.761   0.778   0.793   0.767   0.789   0.745   0.743   0.747   0.735   0.739   0.743   0.751   0.736
    87.60    0.593   0.579   0.602   0.586   0.610   0.602   0.639   0.661   0.664   0.677   0.618   0.628   0.648   0.676   0.691   0.676   0.719   0.731   0.791   0.800   0.768   0.726   0.739   0.745   0.706   0.712   0.693   0.697   0.697   0.724   0.733
    82.93    0.638   0.614   0.597   0.592   0.585   0.612   0.606   0.643   0.661   0.669   0.654   0.661   0.654   0.648   0.679   0.685   0.701   0.738   0.737   0.777   0.740   0.676   0.726   0.701   0.736   0.719   0.682   0.701   0.703   0.699   0.741
    78.27    0.645   0.656   0.639   0.593   0.532   0.606   0.630   0.649   0.650   0.654   0.656   0.655   0.631   0.661   0.694   0.694   0.693   0.700   0.722   0.754   0.752   0.719   0.738   0.730   0.773   0.758   0.708   0.704   0.721   0.707   0.709
    73.60    0.669   0.650   0.625   0.586   0.588   0.596   0.644   0.668   0.659   0.653   0.652   0.647   0.646   0.665   0.678   0.662   0.684   0.693   0.727   0.702   0.732   0.720   0.759   0.725   0.750   0.761   0.732   0.696   0.706   0.728   0.741
    68.93    0.650   0.636   0.646   0.641   0.609   0.607   0.630   0.655   0.718   0.708   0.691   0.686   0.688   0.670   0.683   0.703   0.688   0.701   0.699   0.690   0.710   0.715   0.681   0.711   0.760   0.745   0.762   0.736   0.709   0.680   0.703
    64.27    0.683   0.673   0.661   0.674   0.657   0.644   0.622   0.664   0.661   0.662   0.681   0.690   0.681   0.707   0.701   0.685   0.698   0.722   0.709   0.680   0.695   0.670   0.660   0.725   0.734   0.714   0.736   0.755   0.747   0.733   0.699
    59.60    0.693   0.695   0.707   0.677   0.659   0.640   0.644   0.643   0.667   0.670   0.663   0.686   0.661   0.696   0.706   0.713   0.701   0.726   0.732   0.704   0.664   0.695   0.686   0.695   0.741   0.743   0.765   0.787   0.755   0.738   0.681
    54.93    0.708   0.708   0.719   0.682   0.670   0.684   0.621   0.619   0.636   0.632   0.659   0.694   0.656   0.677   0.691   0.699   0.712   0.732   0.728   0.713   0.678   0.728   0.667   0.716   0.759   0.768   0.806   0.774   0.776   0.770   0.730
    50.27    0.724   0.707   0.708   0.656   0.640   0.649   0.624   0.614   0.626   0.655   0.655   0.687   0.674   0.651   0.651   0.690   0.723   0.721   0.712   0.714   0.736   0.735   0.722   0.705   0.710   0.754   0.745   0.715   0.684   0.709   0.738
    45.60    0.695   0.670   0.661   0.674   0.647   0.619   0.620   0.618   0.656   0.638   0.656   0.643   0.666   0.687   0.672   0.672   0.665   0.724   0.724   0.761   0.759   0.782   0.766   0.737   0.724   0.741   0.745   0.731   0.737   0.730   0.731
    40.93    0.727   0.728   0.663   0.671   0.646   0.621   0.621   0.671   0.677   0.687   0.664   0.658   0.725   0.724   0.689   0.645   0.666   0.734   0.771   0.768   0.765   0.781   0.798   0.827   0.767   0.771   0.774   0.772   0.719   0.739   0.747
    36.27    0.771   0.736   0.696   0.670   0.633   0.641   0.643   0.689   0.688   0.664   0.684   0.693   0.671   0.713   0.724   0.670   0.687   0.719   0.754   0.771   0.753   0.789   0.832   0.781   0.770   0.784   0.759   0.766   0.759   0.739   0.746
    31.60    0.744   0.739   0.713   0.667   0.625   0.640   0.648   0.714   0.702   0.704   0.673   0.692   0.695   0.725   0.702   0.672   0.700   0.738   0.740   0.697   0.746   0.795   0.793   0.792   0.755   0.746   0.726   0.712   0.707   0.744   0.779
    26.93    0.763   0.756   0.707   0.694   0.631   0.633   0.660   0.697   0.737   0.721   0.688   0.664   0.675   0.722   0.746   0.739   0.776   0.805   0.747   0.762   0.754   0.766   0.788   0.765   0.712   0.716   0.706   0.726   0.716   0.752   0.760
    22.27    0.796   0.753   0.706   0.692   0.700   0.685   0.655   0.667   0.709   0.706   0.730   0.698   0.716   0.738   0.748   0.788   0.787   0.775   0.782   0.776   0.724   0.746   0.747   0.715   0.735   0.705   0.715   0.747   0.724   0.728   0.719
    17.60    0.764   0.743   0.737   0.745   0.758   0.727   0.699   0.714   0.741   0.718   0.734   0.730   0.752   0.763   0.739   0.747   0.780   0.814   0.783   0.785   0.781   0.724   0.695   0.711   0.744   0.735   0.773   0.753   0.736   0.748   0.759

   Height   Standard deviation at grid points for the v component:
   157.60    0.559   0.550   0.535   0.542   0.537   0.540   0.542   0.543   0.540   0.534   0.534   0.535   0.540   0.531   0.539   0.514   0.521   0.517   0.535   0.566   0.549   0.555   0.594   0.565   0.558   0.543   0.568   0.553   0.566   0.551   0.577
   152.93    0.577   0.556   0.561   0.552   0.537   0.529   0.557   0.538   0.526   0.522   0.521   0.509   0.516   0.523   0.526   0.528   0.526   0.513   0.516   0.537   0.564   0.567   0.584   0.596   0.583   0.571   0.596   0.604   0.597   0.590   0.587
   148.27    0.593   0.577   0.560   0.567   0.555   0.540   0.543   0.515   0.502   0.524   0.494   0.489   0.507   0.518   0.505   0.512   0.513   0.503   0.515   0.542   0.570   0.562   0.578   0.615   0.601   0.591   0.594   0.602   0.586   0.590   0.586
   143.60    0.615   0.589   0.591   0.591   0.580   0.548   0.514   0.499   0.491   0.497   0.482   0.476   0.478   0.513   0.520   0.524   0.519   0.499   0.526   0.547   0.550   0.550   0.574   0.605   0.589   0.588   0.586   0.585   0.582   0.610   0.580
   138.93    0.598   0.595   0.576   0.588   0.569   0.542   0.542   0.496   0.492   0.502   0.493   0.466   0.506   0.521   0.523   0.520   0.517   0.534   0.517   0.531   0.548   0.548   0.566   0.587   0.577   0.587   0.580   0.572   0.588   0.586   0.566
   134.27    0.593   0.593   0.585   0.578   0.565   0.564   0.535   0.508   0.491   0.491   0.502   0.497   0.498   0.533   0.528   0.513   0.541   0.545   0.558   0.534   0.524   0.546   0.572   0.577   0.558   0.582   0.577   0.558   0.561   0.548   0.567
   129.60    0.604   0.581   0.585   0.571   0.579   0.551   0.534   0.493   0.512   0.517   0.516   0.498   0.523   0.553   0.532   0.520   0.525   0.540   0.567   0.539   0.538   0.574   0.591   0.572   0.577   0.567   0.580   0.554   0.548   0.531   0.535
   124.93    0.602   0.584   0.580   0.572   0.557   0.548   0.527   0.498   0.507   0.513   0.497   0.492   0.518   0.548   0.542   0.541   0.520   0.555   0.542   0.558   0.555   0.582   0.569   0.586   0.570   0.560   0.587   0.561   0.573   0.557   0.567
   120.27    0.581   0.578   0.568   0.548   0.537   0.517   0.516   0.516   0.521   0.532   0.533   0.512   0.515   0.539   0.559   0.543   0.531   0.530   0.537   0.546   0.560   0.564   0.574   0.579   0.573   0.595   0.603   0.587   0.582   0.568   0.563
   115.60    0.574   0.546   0.539   0.530   0.535   0.502   0.508   0.510   0.522   0.559   0.546   0.530   0.515   0.535   0.540   0.546   0.526   0.503   0.522   0.571   0.566   0.568   0.577   0.579   0.572   0.604   0.598   0.608   0.591   0.589   0.558
   110.93    0.572   0.563   0.556   0.548   0.525   0.554   0.528   0.507   0.526   0.546   0.546   0.541   0.530   0.536   0.556   0.557   0.549   0.502   0.525   0.547   0.546   0.577   0.600   0.566   0.557   0.576   0.616   0.616   0.592   0.602   0.589
   106.27    0.561   0.552   0.561   0.572   0.565   0.554   0.520   0.520   0.533   0.560   0.556   0.551   0.545   0.551   0.569   0.558   0.573   0.532   0.538   0.577   0.543   0.590   0.597   0.607   0.573   0.569   0.605   0.614   0.606   0.577   0.575
   101.60    0.562   0.563   0.550   0.573   0.557   0.554   0.521   0.540   0.540   0.537   0.557   0.567   0.591   0.562   0.548   0.566   0.563   0.555   0.557   0.569   0.578   0.597   0.615   0.599   0.592   0.578   0.576   0.562   0.602   0.580   0.589
    96.93    0.562   0.563   0.543   0.550   0.534   0.516   0.516   0.530   0.544   0.531   0.558   0.567   0.580   0.566   0.568   0.564   0.569   0.570   0.561   0.576   0.607   0.645   0.618   0.604   0.574   0.577   0.552   0.583   0.602   0.584   0.615
    92.27    0.549   0.572   0.548   0.541   0.537   0.521   0.525   0.525   0.515   0.544   0.559   0.584   0.583   0.558   0.564   0.567   0.565   0.580   0.574   0.597   0.601   0.614   0.618   0.603   0.596   0.581   0.576   0.602   0.610   0.617   0.617
    87.60    0.573   0.559   0.548   0.538   0.533   0.515   0.531   0.538   0.553   0.567   0.537   0.546   0.573   0.589   0.601   0.586   0.582   0.586   0.594   0.624   0.620   0.594   0.614   0.589   0.602   0.597   0.578   0.606   0.608   0.624   0.629
    82.93    0.559   0.569   0.555   0.553   0.562   0.559   0.560   0.543   0.554   0.555   0.528   0.539   0.558   0.564   0.563   0.593   0.572   0.599   0.600   0.607   0.621   0.589   0.593   0.594   0.607   0.597   0.592   0.595   0.603   0.608   0.618
    78.27    0.554   0.567   0.557   0.538   0.560   0.581   0.569   0.564   0.573   0.562   0.558   0.573   0.552   0.562   0.550   0.562   0.575   0.599   0.608   0.585   0.606   0.609   0.612   0.634   0.624   0.609   0.610   0.616   0.609   0.616   0.616
    73.60    0.560   0.549   0.535   0.549   0.555   0.570   0.560   0.568   0.578   0.574   0.593   0.552   0.561   0.579   0.579   0.598   0.596   0.620   0.630   0.599   0.614   0.630   0.608   0.612   0.618   0.637   0.647   0.621   0.630   0.621   0.620
    68.93    0.549   0.540   0.544   0.559   0.564   0.570   0.573   0.579   0.551   0.550   0.556   0.552   0.551   0.579   0.600   0.602   0.613   0.624   0.621   0.622   0.648   0.612   0.608   0.622   0.609   0.614   0.630   0.638   0.607   0.614   0.618
    64.27    0.552   0.559   0.567   0.553   0.561   0.560   0.586   0.577   0.563   0.563   0.574   0.548   0.534   0.559   0.591   0.595   0.610   0.619   0.625   0.616   0.611   0.608   0.611   0.611   0.592   0.635   0.628   0.597   0.598   0.613   0.589
    59.60    0.565   0.567   0.564   0.526   0.545   0.577   0.565   0.557   0.559   0.558   0.572   0.556   0.537   0.571   0.578   0.592   0.610   0.618   0.601   0.608   0.601   0.603   0.605   0.620   0.604   0.610   0.604   0.590   0.572   0.568   0.572
    54.93    0.577   0.580   0.590   0.564   0.556   0.553   0.553   0.562   0.556   0.559   0.556   0.560   0.570   0.560   0.578   0.570   0.581   0.577   0.594   0.600   0.623   0.626   0.621   0.589   0.606   0.591   0.578   0.589   0.576   0.544   0.560
    50.27    0.580   0.582   0.560   0.552   0.559   0.553   0.576   0.547   0.542   0.541   0.545   0.545   0.549   0.555   0.561   0.564   0.569   0.587   0.599   0.626   0.647   0.633   0.620   0.599   0.590   0.587   0.574   0.574   0.561   0.557   0.570
    45.60    0.596   0.570   0.561   0.539   0.532   0.530   0.555   0.572   0.562   0.539   0.544   0.548   0.550   0.563   0.578   0.572   0.573   0.580   0.600   0.629   0.628   0.651   0.597   0.595   0.596   0.584   0.572   0.537   0.531   0.542   0.557
    40.93    0.592   0.577   0.549   0.540   0.539   0.551   0.541   0.560   0.548   0.559   0.541   0.571   0.572   0.571   0.573   0.574   0.589   0.585   0.594   0.602   0.614   0.639   0.604   0.612   0.587   0.575   0.546   0.532   0.531   0.552   0.567
    36.27    0.592   0.573   0.566   0.574   0.555   0.565   0.575   0.568   0.542   0.557   0.565   0.571   0.581   0.572   0.565   0.580   0.575   0.567   0.597   0.597   0.607   0.625   0.610   0.608   0.636   0.587   0.539   0.525   0.551   0.545   0.545
    31.60    0.602   0.602   0.572   0.561   0.555   0.572   0.553   0.571   0.596   0.573   0.574   0.584   0.557   0.574   0.564   0.577   0.576   0.576   0.583   0.584   0.602   0.583   0.614   0.605   0.616   0.604   0.572   0.562   0.547   0.543   0.556
    26.93    0.603   0.596   0.596   0.576   0.561   0.565   0.556   0.578   0.568   0.588   0.586   0.595   0.589   0.566   0.552   0.555   0.565   0.585   0.578   0.600   0.566   0.609   0.618   0.604   0.613   0.610   0.595   0.565   0.590   0.561   0.566
    22.27    0.595   0.610   0.596   0.576   0.571   0.568   0.569   0.560   0.549   0.565   0.594   0.596   0.588   0.569   0.570   0.562   0.560   0.577   0.603   0.599   0.594   0.596   0.607   0.615   0.617   0.622   0.588   0.583   0.574   0.575   0.570
    17.60    0.585   0.582   0.583   0.566   0.564   0.550   0.583   0.569   0.563   0.584   0.591   0.590   0.593   0.601   0.563   0.570   0.572   0.573   0.595   0.583   0.582   0.593   0.607   0.613   0.620   0.593   0.588   0.587   0.579   0.574   0.593

   Height   Standard deviation at grid points for the w component:
   157.60    0.452   0.461   0.461   0.477   0.471   0.454   0.466   0.463   0.483   0.484   0.482   0.473   0.471   0.469   0.458   0.472   0.463   0.481   0.495   0.465   0.450   0.439   0.445   0.441   0.455   0.484   0.485   0.467   0.465   0.457   0.448
   152.93    0.471   0.476   0.485   0.499   0.483   0.463   0.463   0.469   0.474   0.479   0.464   0.453   0.456   0.471   0.467   0.456   0.461   0.474   0.477   0.453   0.432   0.417   0.429   0.443   0.456   0.469   0.477   0.457   0.433   0.426   0.455
   148.27    0.458   0.479   0.492   0.498   0.486   0.440   0.450   0.470   0.469   0.469   0.461   0.462   0.462   0.460   0.463   0.468   0.465   0.476   0.474   0.456   0.418   0.402   0.434   0.443   0.452   0.465   0.463   0.429   0.438   0.431   0.434
   143.60    0.479   0.475   0.493   0.491   0.477   0.467   0.448   0.442   0.462   0.446   0.458   0.453   0.458   0.479   0.467   0.467   0.475   0.466   0.452   0.431   0.408   0.416   0.431   0.442   0.453   0.442   0.438   0.430   0.412   0.415   0.409
   138.93    0.471   0.472   0.478   0.474   0.467   0.459   0.448   0.435   0.443   0.449   0.451   0.465   0.468   0.475   0.472   0.451   0.468   0.470   0.453   0.434   0.411   0.408   0.418   0.439   0.435   0.442   0.439   0.426   0.431   0.422   0.423
   134.27    0.478   0.466   0.458   0.462   0.473   0.460   0.433   0.445   0.455   0.453   0.446   0.437   0.454   0.467   0.474   0.465   0.488   0.468   0.453   0.447   0.425   0.401   0.411   0.425   0.445   0.426   0.446   0.436   0.432   0.427   0.417
   129.60    0.478   0.473   0.463   0.464   0.463   0.461   0.437   0.440   0.452   0.445   0.446   0.447   0.445   0.452   0.470   0.459   0.465   0.459   0.458   0.454   0.445   0.425   0.438   0.426   0.433   0.431   0.433   0.442   0.440   0.446   0.454
   124.93    0.486   0.473   0.468   0.473   0.462   0.441   0.426   0.448   0.442   0.459   0.438   0.437   0.453   0.454   0.454   0.451   0.452   0.447   0.480   0.468   0.441   0.433   0.431   0.445   0.431   0.433   0.438   0.447   0.451   0.451   0.458
   120.27    0.469   0.480   0.482   0.476   0.447   0.453   0.429   0.447   0.459   0.465   0.437   0.434   0.423   0.437   0.462   0.446   0.455   0.453   0.468   0.466   0.454   0.458   0.456   0.451   0.444   0.425   0.444   0.449   0.442   0.451   0.452
   115.60    0.488   0.466   0.480   0.480   0.473   0.450   0.434   0.451   0.459   0.457   0.449   0.421   0.421   0.431   0.462   0.464   0.459   0.455   0.454   0.448   0.460   0.464   0.458   0.467   0.439   0.448   0.441   0.449   0.476   0.477   0.464
   110.93    0.475   0.475   0.485   0.467   0.460   0.455   0.461   0.452   0.461   0.451   0.435   0.415   0.430   0.425   0.446   0.451   0.442   0.434   0.439   0.432   0.449   0.457   0.457   0.458   0.443   0.441   0.433   0.450   0.465   0.461   0.481
   106.27    0.461   0.468   0.461   0.458   0.440   0.445   0.451   0.461   0.462   0.457   0.438   0.426   0.434   0.431   0.435   0.444   0.465   0.452   0.451   0.447   0.449   0.462   0.458   0.445   0.452   0.439   0.453   0.443   0.466   0.460   0.467
   101.60    0.451   0.457   0.466   0.455   0.436   0.434   0.455   0.458   0.452   0.440   0.426   0.405   0.438   0.440   0.439   0.431   0.450   0.457   0.462   0.445   0.458   0.464   0.455   0.463   0.450   0.451   0.444   0.453   0.451   0.458   0.464
    96.93    0.468   0.459   0.454   0.449   0.437   0.429   0.443   0.458   0.451   0.448   0.414   0.423   0.433   0.444   0.446   0.438   0.458   0.457   0.449   0.461   0.471   0.461   0.451   0.457   0.455   0.458   0.456   0.460   0.457   0.454   0.451
    92.27    0.445   0.447   0.458   0.448   0.441   0.459   0.461   0.463   0.471   0.459   0.440   0.434   0.451   0.448   0.447   0.454   0.452   0.461   0.462   0.457   0.456   0.476   0.464   0.468   0.463   0.458   0.460   0.455   0.457   0.455   0.467
    87.60    0.435   0.449   0.460   0.473   0.461   0.483   0.481   0.457   0.448   0.460   0.446   0.444   0.448   0.456   0.464   0.451   0.460   0.470   0.475   0.478   0.481   0.488   0.487   0.491   0.458   0.460   0.459   0.468   0.468   0.470   0.461
    82.93    0.446   0.452   0.479   0.469   0.474   0.480   0.467   0.463   0.441   0.459   0.448   0.439   0.441   0.442   0.455   0.454   0.449   0.450   0.472   0.484   0.490   0.476   0.489   0.486   0.484   0.464   0.472   0.460   0.474   0.458   0.464
    78.27    0.434   0.459   0.465   0.462   0.442   0.456   0.457   0.456   0.448   0.453   0.453   0.442   0.448   0.452   0.474   0.455   0.435   0.460   0.474   0.469   0.493   0.472   0.493   0.489   0.489   0.472   0.458   0.471   0.464   0.473   0.481
    73.60    0.446   0.453   0.453   0.467   0.443   0.442   0.457   0.448   0.468   0.463   0.446   0.443   0.440   0.451   0.482   0.473   0.462   0.478   0.472   0.461   0.477   0.465   0.470   0.478   0.493   0.478   0.471   0.459   0.478   0.485   0.502
    68.93    0.438   0.471   0.475   0.470   0.446   0.444   0.446   0.445   0.446   0.463   0.474   0.460   0.455   0.456   0.469   0.465   0.473   0.481   0.468   0.469   0.473   0.466   0.460   0.475   0.465   0.472   0.467   0.468   0.458   0.466   0.476
    64.27    0.469   0.473   0.476   0.482   0.461   0.453   0.464   0.474   0.460   0.466   0.462   0.476   0.470   0.460   0.476   0.461   0.466   0.465   0.449   0.466   0.471   0.461   0.461   0.456   0.452   0.454   0.465   0.469   0.463   0.470   0.483
    59.60    0.455   0.464   0.488   0.488   0.470   0.464   0.464   0.475   0.465   0.469   0.480   0.491   0.469   0.458   0.463   0.445   0.444   0.452   0.465   0.473   0.476   0.467   0.459   0.452   0.460   0.472   0.455   0.466   0.475   0.469   0.489
    54.93    0.454   0.470   0.478   0.499   0.469   0.474   0.461   0.459   0.469   0.470   0.478   0.473   0.457   0.471   0.471   0.454   0.442   0.436   0.458   0.476   0.464   0.473   0.469   0.465   0.460   0.455   0.469   0.471   0.464   0.486   0.477
    50.27    0.458   0.474   0.478   0.469   0.466   0.474   0.445   0.456   0.454   0.452   0.468   0.461   0.455   0.468   0.476   0.469   0.441   0.453   0.459   0.476   0.465   0.473   0.482   0.485   0.475   0.468   0.459   0.473   0.463   0.478   0.476
    45.60    0.451   0.474   0.463   0.461   0.466   0.441   0.452   0.436   0.457   0.451   0.461   0.457   0.447   0.461   0.456   0.468   0.456   0.463   0.475   0.470   0.469   0.481   0.470   0.469   0.454   0.463   0.464   0.458   0.450   0.456   0.470
    40.93    0.462   0.470   0.466   0.463   0.464   0.460   0.462   0.452   0.448   0.451   0.463   0.459   0.451   0.454   0.435   0.435   0.441   0.461   0.481   0.466   0.468   0.482   0.466   0.458   0.450   0.440   0.455   0.460   0.441   0.444   0.449
    36.27    0.479   0.480   0.469   0.485   0.469   0.465   0.464   0.446   0.457   0.465   0.466   0.450   0.450   0.457   0.459   0.459   0.476   0.461   0.454   0.463   0.470   0.474   0.471   0.474   0.468   0.456   0.462   0.462   0.457   0.449   0.462
    31.60    0.477   0.480   0.470   0.458   0.454   0.461   0.468   0.474   0.474   0.475   0.475   0.460   0.459   0.457   0.442   0.442   0.451   0.448   0.440   0.455   0.454   0.469   0.470   0.468   0.460   0.454   0.468   0.468   0.461   0.462   0.471
    26.93    0.473   0.465   0.449   0.439   0.453   0.448   0.479   0.469   0.467   0.472   0.472   0.453   0.449   0.445   0.435   0.446   0.439   0.434   0.444   0.466   0.458   0.469   0.472   0.471   0.463   0.449   0.460   0.460   0.455   0.470   0.468
    22.27    0.451   0.465   0.446   0.439   0.450   0.456   0.451   0.444   0.445   0.461   0.461   0.461   0.467   0.445   0.430   0.445   0.447   0.438   0.450   0.453   0.470   0.466   0.463   0.458   0.452   0.457   0.455   0.468   0.451   0.462   0.462
    17.60    0.453   0.457   0.448   0.447   0.457   0.450   0.458   0.453   0.441   0.454   0.453   0.452   0.457   0.444   0.431   0.424   0.441   0.435   0.449   0.459   0.466   0.455   0.450   0.443   0.454   0.461   0.455   0.467   0.465   0.465   0.462

   Mean standard deviation across all grid points:
      u component:    0.701 m/s
      v component:    0.568 m/s
      w component:    0.458 m/s


U-component (X) statistics from the hub grid point:

   Mean =   6.9730 m/s
   TI   =   9.6972 %

Nyquist frequency of turbulent wind field =        10.000 Hz


Processing complete.  357.05 CPU seconds used.
